circuit/LineCodes.dss
! Linecodes
new linecode.lcon_11_C nphases=1 units=mi
~ rmatrix=[1.329200]
~ xmatrix=[1.347500]
~ cmatrix=[11.987300]
new linecode.lcon_1_ABC nphases=3 units=mi
~ rmatrix=[0.457600 | 0.156000 0.466600 | 0.153500 0.158000 0.461500]
~ xmatrix=[1.078000 | 0.501700 1.048200 | 0.384900 0.423600 1.065100]
~ cmatrix=[15.056700 | -4.859000 15.864100 | -1.851900 -3.088800 14.315600]
new linecode.lcon_12_ABC nphases=3 units=mi
~ rmatrix=[1.520900 | 0.519800 1.532900 | 0.492400 0.519800 1.520900]
~ xmatrix=[0.752100 | 0.277500 0.716200 | 0.215700 0.277500 0.752100]
~ cmatrix=[178.309300 | 0.000000 178.309300 | 0.000000 0.000000 178.309300]
new linecode.lcon_2_ABC nphases=3 units=mi
~ rmatrix=[0.466600 | 0.158000 0.461500 | 0.156000 0.153500 0.457600]
~ xmatrix=[1.048200 | 0.423600 1.065100 | 0.501700 0.384900 1.078000]
~ cmatrix=[15.864100 | -3.088800 14.315600 | -4.859000 -1.851900 15.056700]
new linecode.lcon_3_ABC nphases=3 units=mi
~ rmatrix=[0.461500 | 0.153500 0.457600 | 0.158000 0.156000 0.466600]
~ xmatrix=[1.065100 | 0.384900 1.078000 | 0.423600 0.501700 1.048200]
~ cmatrix=[14.315600 | -1.851900 15.056700 | -3.088800 -4.859000 15.864100]
new linecode.lcon_4_ABC nphases=3 units=mi
~ rmatrix=[0.461500 | 0.158000 0.466600 | 0.153500 0.156000 0.457600]
~ xmatrix=[1.065100 | 0.423600 1.048200 | 0.384900 0.501700 1.078000]
~ cmatrix=[14.315600 | 3.088800 15.864100 | -1.851900 -4.859000 15.056700]
new linecode.lcon_5_ABC nphases=3 units=mi
~ rmatrix=[0.466600 | 0.156000 0.457600 | 0.158000 0.153500 0.461500]
~ xmatrix=[1.048200 | 0.501700 1.078000 | 0.423600 0.384900 1.065100]
~ cmatrix=[15.864100 | -4.859000 15.056700 | -3.088800 -1.851900 14.315600]
new linecode.lcon_6_ABC nphases=3 units=mi
~ rmatrix=[0.457600 | 0.153500 0.461500 | 0.156000 0.158000 0.466600]
~ xmatrix=[1.078000 | 0.384900 1.065100 | 0.501700 0.423600 1.048200]
~ cmatrix=[15.056700 | -1.851900 14.315600 | -4.859000 -3.088800 15.864100]
new linecode.lcon_7_AC nphases=2 units=mi
~ rmatrix=[0.457600 | 0.153500 0.461500]
~ xmatrix=[1.078000 | 0.384900 1.065100]
~ cmatrix=[13.568400 | -2.798100 13.714300]
new linecode.lcon_8_AB nphases=2 units=mi
~ rmatrix=[0.457600 | 0.153500 0.461500]
~ xmatrix=[1.078000 | 0.384900 1.065100]
~ cmatrix=[13.568400 | -2.798100 13.714300]
new linecode.lcon_9_A nphases=1 units=mi
~ rmatrix=[1.329200]
~ xmatrix=[1.347500]
~ cmatrix=[11.987300]
new linecode.lcon_10_B nphases=1 units=mi
~ rmatrix=[1.329200]
~ xmatrix=[1.347500]
~ cmatrix=[11.987300]
