circuit/OverheadLines.dss
! Overhead Line Definitions
new line.line_l50 bus1=node_50.1.2.3 bus2=node_51.1.2.3 phases=3 linecode=lcon_4_ABC length=250.0046 units=Ft
new line.line_l52 bus1=node_52.1.2.3 bus2=node_53.1.2.3 phases=3 linecode=lcon_1_ABC length=200.0037 units=Ft
new line.line_l51 bus1=node_51.1.2.3 bus2=node_151.1.2.3 phases=3 linecode=lcon_4_ABC length=500.0092 units=Ft
new line.line_l54 bus1=node_54.1.2.3 bus2=node_55.1.2.3 phases=3 linecode=lcon_1_ABC length=275.0050 units=Ft
new line.line_l53 bus1=node_53.1.2.3 bus2=node_54.1.2.3 phases=3 linecode=lcon_1_ABC length=125.0023 units=Ft
new line.line_l56 bus1=node_55.1.2.3 bus2=node_56.1.2.3 phases=3 linecode=lcon_1_ABC length=275.0050 units=Ft
new line.line_l55 bus1=node_54.1.2.3 bus2=node_57.1.2.3 phases=3 linecode=lcon_3_ABC length=350.0064 units=Ft
new line.line_l58 bus1=node_57.1.2.3 bus2=node_60.1.2.3 phases=3 linecode=lcon_3_ABC length=750.0137 units=Ft
new line.line_l57 bus1=node_57.2 bus2=node_58.2 phases=1 linecode=lcon_10_B length=250.0046 units=Ft
new line.line_l59 bus1=node_58.2 bus2=node_59.2 phases=1 linecode=lcon_10_B length=250.0046 units=Ft
new line.line_l111 bus1=node_110.1 bus2=node_112.1 phases=1 linecode=lcon_9_A length=125.0023 units=Ft
new line.line_l110 bus1=node_110.1 bus2=node_111.1 phases=1 linecode=lcon_9_A length=575.0105 units=Ft
new line.line_l113 bus1=node_113.1 bus2=node_114.1 phases=1 linecode=lcon_9_A length=325.0060 units=Ft
new line.line_l112 bus1=node_112.1 bus2=node_113.1 phases=1 linecode=lcon_9_A length=525.0096 units=Ft
new line.line_l115 bus1=node_149.1.2.3 bus2=node_1.1.2.3 phases=3 linecode=lcon_1_ABC length=400.0073 units=Ft
new line.line_l114 bus1=node_135.1.2.3 bus2=node_35.1.2.3 phases=3 linecode=lcon_4_ABC length=375.0069 units=Ft
new line.line_l117 bus1=node_160r.1.2.3 bus2=node_67.1.2.3 phases=3 linecode=lcon_6_ABC length=350.0064 units=Ft
new line.line_l116 bus1=node_152.1.2.3 bus2=node_52.1.2.3 phases=3 linecode=lcon_1_ABC length=400.0073 units=Ft
new line.line_l118 bus1=node_197.1.2.3 bus2=node_101.1.2.3 phases=3 linecode=lcon_3_ABC length=250.0046 units=Ft
new line.line_l61 bus1=node_60.1.2.3 bus2=node_62.1.2.3 phases=3 linecode=lcon_12_ABC length=250.0046 units=Ft
new line.line_l60 bus1=node_60.1.2.3 bus2=node_61.1.2.3 phases=3 linecode=lcon_5_ABC length=550.0101 units=Ft
new line.line_l63 bus1=node_63.1.2.3 bus2=node_64.1.2.3 phases=3 linecode=lcon_12_ABC length=350.0064 units=Ft
new line.line_l62 bus1=node_62.1.2.3 bus2=node_63.1.2.3 phases=3 linecode=lcon_12_ABC length=175.0032 units=Ft
new line.line_l65 bus1=node_65.1.2.3 bus2=node_66.1.2.3 phases=3 linecode=lcon_12_ABC length=325.0060 units=Ft
new line.line_l64 bus1=node_64.1.2.3 bus2=node_65.1.2.3 phases=3 linecode=lcon_12_ABC length=425.0078 units=Ft
new line.line_l67 bus1=node_67.1.2.3 bus2=node_72.1.2.3 phases=3 linecode=lcon_3_ABC length=275.0050 units=Ft
new line.line_l66 bus1=node_67.1 bus2=node_68.1 phases=1 linecode=lcon_9_A length=200.0037 units=Ft
new line.line_l69 bus1=node_68.1 bus2=node_69.1 phases=1 linecode=lcon_9_A length=275.0050 units=Ft
new line.line_l68 bus1=node_67.1.2.3 bus2=node_97.1.2.3 phases=3 linecode=lcon_3_ABC length=250.0046 units=Ft
new line.line_l100 bus1=node_101.3 bus2=node_102.3 phases=1 linecode=lcon_11_C length=225.0041 units=Ft
new line.line_l102 bus1=node_102.3 bus2=node_103.3 phases=1 linecode=lcon_11_C length=325.0060 units=Ft
new line.line_l101 bus1=node_101.1.2.3 bus2=node_105.1.2.3 phases=3 linecode=lcon_3_ABC length=275.0050 units=Ft
new line.line_l104 bus1=node_105.2 bus2=node_106.2 phases=1 linecode=lcon_10_B length=225.0041 units=Ft
new line.line_l103 bus1=node_103.3 bus2=node_104.3 phases=1 linecode=lcon_11_C length=700.0128 units=Ft
new line.line_l106 bus1=node_106.2 bus2=node_107.2 phases=1 linecode=lcon_10_B length=575.0105 units=Ft
new line.line_l105 bus1=node_105.1.2.3 bus2=node_108.1.2.3 phases=3 linecode=lcon_3_ABC length=325.0060 units=Ft
new line.line_l108 bus1=node_108.1.2.3 bus2=node_300.1.2.3 phases=3 linecode=lcon_3_ABC length=1000.0183 units=Ft
new line.line_l107 bus1=node_108.1 bus2=node_109.1 phases=1 linecode=lcon_9_A length=450.0082 units=Ft
new line.line_l109 bus1=node_109.1 bus2=node_110.1 phases=1 linecode=lcon_9_A length=300.0055 units=Ft
new line.line_l70 bus1=node_69.1 bus2=node_70.1 phases=1 linecode=lcon_9_A length=325.0060 units=Ft
new line.line_l1 bus1=node_1.2 bus2=node_2.2 phases=1 linecode=lcon_10_B length=175.0032 units=Ft
new line.line_l2 bus1=node_1.3 bus2=node_3.3 phases=1 linecode=lcon_11_C length=250.0046 units=Ft
new line.line_l72 bus1=node_72.3 bus2=node_73.3 phases=1 linecode=lcon_11_C length=275.0050 units=Ft
new line.line_l3 bus1=node_1.1.2.3 bus2=node_7.1.2.3 phases=3 linecode=lcon_1_ABC length=300.0055 units=Ft
new line.line_l71 bus1=node_70.1 bus2=node_71.1 phases=1 linecode=lcon_9_A length=275.0050 units=Ft
new line.line_l4 bus1=node_3.3 bus2=node_4.3 phases=1 linecode=lcon_11_C length=200.0037 units=Ft
new line.line_l74 bus1=node_73.3 bus2=node_74.3 phases=1 linecode=lcon_11_C length=350.0064 units=Ft
new line.line_l5 bus1=node_3.3 bus2=node_5.3 phases=1 linecode=lcon_11_C length=325.0060 units=Ft
new line.line_l73 bus1=node_72.1.2.3 bus2=node_76.1.2.3 phases=3 linecode=lcon_3_ABC length=200.0037 units=Ft
new line.line_l6 bus1=node_5.3 bus2=node_6.3 phases=1 linecode=lcon_11_C length=250.0046 units=Ft
new line.line_l76 bus1=node_76.1.2.3 bus2=node_77.1.2.3 phases=3 linecode=lcon_6_ABC length=400.0073 units=Ft
new line.line_l7 bus1=node_7.1.2.3 bus2=node_8.1.2.3 phases=3 linecode=lcon_1_ABC length=200.0037 units=Ft
new line.line_l75 bus1=node_74.3 bus2=node_75.3 phases=1 linecode=lcon_11_C length=400.0073 units=Ft
new line.line_l78 bus1=node_77.1.2.3 bus2=node_78.1.2.3 phases=3 linecode=lcon_6_ABC length=100.0018 units=Ft
new line.line_l8 bus1=node_8.2 bus2=node_12.2 phases=1 linecode=lcon_10_B length=225.0041 units=Ft
new line.line_l77 bus1=node_76.1.2.3 bus2=node_86.1.2.3 phases=3 linecode=lcon_3_ABC length=700.0128 units=Ft
new line.line_l9 bus1=node_8.1 bus2=node_9.1 phases=1 linecode=lcon_9_A length=225.0041 units=Ft
new line.line_l79 bus1=node_78.1.2.3 bus2=node_79.1.2.3 phases=3 linecode=lcon_6_ABC length=225.0041 units=Ft
new line.line_l81 bus1=node_80.1.2.3 bus2=node_81.1.2.3 phases=3 linecode=lcon_6_ABC length=175.0032 units=Ft
new line.line_l80 bus1=node_78.1.2.3 bus2=node_80.1.2.3 phases=3 linecode=lcon_6_ABC length=475.0087 units=Ft
new line.line_l83 bus1=node_81.3 bus2=node_84.3 phases=1 linecode=lcon_11_C length=675.0124 units=Ft
new line.line_l82 bus1=node_81.1.2.3 bus2=node_82.1.2.3 phases=3 linecode=lcon_6_ABC length=250.0046 units=Ft
new line.line_l85 bus1=node_84.3 bus2=node_85.3 phases=1 linecode=lcon_11_C length=475.0087 units=Ft
new line.line_l84 bus1=node_82.1.2.3 bus2=node_83.1.2.3 phases=3 linecode=lcon_6_ABC length=250.0046 units=Ft
new line.line_l87 bus1=node_87.1 bus2=node_88.1 phases=1 linecode=lcon_9_A length=175.0032 units=Ft
new line.line_l86 bus1=node_86.1.2.3 bus2=node_87.1.2.3 phases=3 linecode=lcon_6_ABC length=450.0082 units=Ft
new line.line_l89 bus1=node_89.2 bus2=node_90.2 phases=1 linecode=lcon_10_B length=250.0046 units=Ft
new line.line_l88 bus1=node_87.1.2.3 bus2=node_89.1.2.3 phases=3 linecode=lcon_6_ABC length=275.0050 units=Ft
new line.line_l90 bus1=node_89.1.2.3 bus2=node_91.1.2.3 phases=3 linecode=lcon_6_ABC length=225.0041 units=Ft
new line.line_l92 bus1=node_91.1.2.3 bus2=node_93.1.2.3 phases=3 linecode=lcon_6_ABC length=225.0041 units=Ft
new line.line_l91 bus1=node_91.3 bus2=node_92.3 phases=1 linecode=lcon_11_C length=300.0055 units=Ft
new line.line_l94 bus1=node_93.1.2.3 bus2=node_95.1.2.3 phases=3 linecode=lcon_6_ABC length=300.0055 units=Ft
new line.line_l93 bus1=node_93.1 bus2=node_94.1 phases=1 linecode=lcon_9_A length=275.0050 units=Ft
new line.line_l96 bus1=node_97.1.2.3 bus2=node_98.1.2.3 phases=3 linecode=lcon_3_ABC length=275.0050 units=Ft
new line.line_l95 bus1=node_95.2 bus2=node_96.2 phases=1 linecode=lcon_10_B length=200.0037 units=Ft
new line.line_l10 bus1=node_8.1.2.3 bus2=node_13.1.2.3 phases=3 linecode=lcon_1_ABC length=300.0055 units=Ft
new line.line_l98 bus1=node_99.1.2.3 bus2=node_100.1.2.3 phases=3 linecode=lcon_3_ABC length=300.0055 units=Ft
new line.line_l97 bus1=node_98.1.2.3 bus2=node_99.1.2.3 phases=3 linecode=lcon_3_ABC length=550.0101 units=Ft
new line.line_l12 bus1=node_13.3 bus2=node_34.3 phases=1 linecode=lcon_11_C length=150.0027 units=Ft
new line.line_l11 bus1=node_9r.1 bus2=node_14.1 phases=1 linecode=lcon_9_A length=425.0078 units=Ft
new line.line_l99 bus1=node_100.1.2.3 bus2=node_450.1.2.3 phases=3 linecode=lcon_3_ABC length=800.0147 units=Ft
new line.line_l14 bus1=node_14.1 bus2=node_11.1 phases=1 linecode=lcon_9_A length=250.0046 units=Ft
new line.line_l13 bus1=node_13.1.2.3 bus2=node_18.1.2.3 phases=3 linecode=lcon_2_ABC length=825.0151 units=Ft
new line.line_l16 bus1=node_15.3 bus2=node_16.3 phases=1 linecode=lcon_11_C length=375.0069 units=Ft
new line.line_l15 bus1=node_14.1 bus2=node_10.1 phases=1 linecode=lcon_9_A length=250.0046 units=Ft
new line.line_l18 bus1=node_18.1 bus2=node_19.1 phases=1 linecode=lcon_9_A length=250.0046 units=Ft
new line.line_l17 bus1=node_15.3 bus2=node_17.3 phases=1 linecode=lcon_11_C length=350.0064 units=Ft
new line.line_l19 bus1=node_18.1.2.3 bus2=node_21.1.2.3 phases=3 linecode=lcon_2_ABC length=300.0055 units=Ft
new line.line_l21 bus1=node_21.2 bus2=node_22.2 phases=1 linecode=lcon_10_B length=525.0096 units=Ft
new line.line_l20 bus1=node_19.1 bus2=node_20.1 phases=1 linecode=lcon_9_A length=325.0060 units=Ft
new line.line_l23 bus1=node_23.3 bus2=node_24.3 phases=1 linecode=lcon_11_C length=550.0101 units=Ft
new line.line_l22 bus1=node_21.1.2.3 bus2=node_23.1.2.3 phases=3 linecode=lcon_2_ABC length=250.0046 units=Ft
new line.line_l25 bus1=node_25r.1.3 bus2=node_26.1.3 phases=2 linecode=lcon_7_AC length=350.0064 units=Ft
new line.line_l24 bus1=node_23.1.2.3 bus2=node_25.1.2.3 phases=3 linecode=lcon_2_ABC length=275.0050 units=Ft
new line.line_l27 bus1=node_26.1.3 bus2=node_27.1.3 phases=2 linecode=lcon_7_AC length=275.0050 units=Ft
new line.line_l26 bus1=node_25.1.2.3 bus2=node_28.1.2.3 phases=3 linecode=lcon_2_ABC length=200.0037 units=Ft
new line.line_l29 bus1=node_27.1 bus2=node_33.1 phases=1 linecode=lcon_9_A length=500.0092 units=Ft
new line.line_l28 bus1=node_26.3 bus2=node_31.3 phases=1 linecode=lcon_11_C length=225.0041 units=Ft
new line.line_l30 bus1=node_28.1.2.3 bus2=node_29.1.2.3 phases=3 linecode=lcon_2_ABC length=300.0055 units=Ft
new line.line_l32 bus1=node_30.1.2.3 bus2=node_250.1.2.3 phases=3 linecode=lcon_2_ABC length=200.0037 units=Ft
new line.line_l31 bus1=node_29.1.2.3 bus2=node_30.1.2.3 phases=3 linecode=lcon_2_ABC length=350.0064 units=Ft
new line.line_l34 bus1=node_34.3 bus2=node_15.3 phases=1 linecode=lcon_11_C length=100.0018 units=Ft
new line.line_l33 bus1=node_31.3 bus2=node_32.3 phases=1 linecode=lcon_11_C length=300.0055 units=Ft
new line.line_l36 bus1=node_35.1.2.3 bus2=node_40.1.2.3 phases=3 linecode=lcon_1_ABC length=250.0046 units=Ft
new line.line_l35 bus1=node_35.1.2 bus2=node_36.1.2 phases=2 linecode=lcon_8_AB length=650.0119 units=Ft
new line.line_l38 bus1=node_36.2 bus2=node_38.2 phases=1 linecode=lcon_10_B length=250.0046 units=Ft
new line.line_l37 bus1=node_36.1 bus2=node_37.1 phases=1 linecode=lcon_9_A length=300.0055 units=Ft
new line.line_l39 bus1=node_38.2 bus2=node_39.2 phases=1 linecode=lcon_10_B length=325.0060 units=Ft
new line.line_l41 bus1=node_40.1.2.3 bus2=node_42.1.2.3 phases=3 linecode=lcon_1_ABC length=250.0046 units=Ft
new line.line_l40 bus1=node_40.3 bus2=node_41.3 phases=1 linecode=lcon_11_C length=325.0060 units=Ft
new line.line_l43 bus1=node_42.1.2.3 bus2=node_44.1.2.3 phases=3 linecode=lcon_1_ABC length=200.0037 units=Ft
new line.line_l42 bus1=node_42.2 bus2=node_43.2 phases=1 linecode=lcon_10_B length=500.0092 units=Ft
new line.line_l45 bus1=node_44.1.2.3 bus2=node_47.1.2.3 phases=3 linecode=lcon_1_ABC length=250.0046 units=Ft
new line.line_l44 bus1=node_44.1 bus2=node_45.1 phases=1 linecode=lcon_9_A length=200.0037 units=Ft
new line.line_l47 bus1=node_47.1.2.3 bus2=node_48.1.2.3 phases=3 linecode=lcon_4_ABC length=150.0027 units=Ft
new line.line_l46 bus1=node_45.1 bus2=node_46.1 phases=1 linecode=lcon_9_A length=300.0055 units=Ft
new line.line_l49 bus1=node_49.1.2.3 bus2=node_50.1.2.3 phases=3 linecode=lcon_4_ABC length=250.0046 units=Ft
new line.line_l48 bus1=node_47.1.2.3 bus2=node_49.1.2.3 phases=3 linecode=lcon_4_ABC length=250.0046 units=Ft
