circuit/TriplexLines.dss
! Triplex Line Definitions
new line.trpln_agg_0_A_1_node_1_1 bus1=s_node_1_a.1.2 bus2=house_agg_0_A_1_node_1_1.1.2 phases=2 linecode=trip_line_config length=50.00 units=Ft
new line.trpln_agg_0_A_2_node_1_2 bus1=s_node_1_a.1.2 bus2=house_agg_0_A_2_node_1_2.1.2 phases=2 linecode=trip_line_config length=50.00 units=Ft
new line.trpln_agg_0_A_3_node_1_3 bus1=s_node_1_a.1.2 bus2=house_agg_0_A_3_node_1_3.1.2 phases=2 linecode=trip_line_config length=50.00 units=Ft
new line.trpln_agg_0_A_4_node_1_4 bus1=s_node_1_a.1.2 bus2=house_agg_0_A_4_node_1_4.1.2 phases=2 linecode=trip_line_config length=50.00 units=Ft
new line.trpln_agg_0_A_5_node_1_5 bus1=s_node_1_a.1.2 bus2=house_agg_0_A_5_node_1_5.1.2 phases=2 linecode=trip_line_config length=50.00 units=Ft
new line.trpln_agg_0_A_6_node_1_6 bus1=s_node_1_a.1.2 bus2=house_agg_0_A_6_node_1_6.1.2 phases=2 linecode=trip_line_config length=50.00 units=Ft
new line.trpln_agg_0_A_7_node_1_7 bus1=s_node_1_a.1.2 bus2=house_agg_0_A_7_node_1_7.1.2 phases=2 linecode=trip_line_config length=50.00 units=Ft
new line.trpln_agg_0_A_8_node_1_8 bus1=s_node_1_a.1.2 bus2=house_agg_0_A_8_node_1_8.1.2 phases=2 linecode=trip_line_config length=50.00 units=Ft
new line.trpln_agg_0_A_9_node_1_9 bus1=s_node_1_a.1.2 bus2=house_agg_0_A_9_node_1_9.1.2 phases=2 linecode=trip_line_config length=50.00 units=Ft
new line.trpln_agg_0_A_10_node_1_10 bus1=s_node_1_a.1.2 bus2=house_agg_0_A_10_node_1_10.1.2 phases=2 linecode=trip_line_config length=50.00 units=Ft
new line.trpln_agg_0_A_11_node_1_11 bus1=s_node_1_a.1.2 bus2=house_agg_0_A_11_node_1_11.1.2 phases=2 linecode=trip_line_config length=50.00 units=Ft
new line.trpln_agg_0_A_12_node_1_12 bus1=s_node_1_a.1.2 bus2=house_agg_0_A_12_node_1_12.1.2 phases=2 linecode=trip_line_config length=50.00 units=Ft
new line.trpln_agg_0_A_13_node_1_13 bus1=s_node_1_a.1.2 bus2=house_agg_0_A_13_node_1_13.1.2 phases=2 linecode=trip_line_config length=50.00 units=Ft
new line.trpln_agg_0_A_14_node_1_14 bus1=s_node_1_a.1.2 bus2=house_agg_0_A_14_node_1_14.1.2 phases=2 linecode=trip_line_config length=50.00 units=Ft
new line.trpln_agg_0_A_15_node_1_15 bus1=s_node_1_a.1.2 bus2=house_agg_0_A_15_node_1_15.1.2 phases=2 linecode=trip_line_config length=50.00 units=Ft
new line.trpln_agg_0_B_1_node_2_16 bus1=s_node_2_b.1.2 bus2=house_agg_0_B_1_node_2_16.1.2 phases=2 linecode=trip_line_config length=50.00 units=Ft
new line.trpln_agg_0_B_2_node_2_17 bus1=s_node_2_b.1.2 bus2=house_agg_0_B_2_node_2_17.1.2 phases=2 linecode=trip_line_config length=50.00 units=Ft
new line.trpln_agg_0_B_3_node_2_18 bus1=s_node_2_b.1.2 bus2=house_agg_0_B_3_node_2_18.1.2 phases=2 linecode=trip_line_config length=50.00 units=Ft
new line.trpln_agg_0_B_4_node_2_19 bus1=s_node_2_b.1.2 bus2=house_agg_0_B_4_node_2_19.1.2 phases=2 linecode=trip_line_config length=50.00 units=Ft
new line.trpln_agg_0_B_5_node_2_20 bus1=s_node_2_b.1.2 bus2=house_agg_0_B_5_node_2_20.1.2 phases=2 linecode=trip_line_config length=50.00 units=Ft
new line.trpln_agg_0_B_6_node_2_21 bus1=s_node_2_b.1.2 bus2=house_agg_0_B_6_node_2_21.1.2 phases=2 linecode=trip_line_config length=50.00 units=Ft
new line.trpln_agg_0_B_7_node_2_22 bus1=s_node_2_b.1.2 bus2=house_agg_0_B_7_node_2_22.1.2 phases=2 linecode=trip_line_config length=50.00 units=Ft
new line.trpln_agg_0_B_8_node_2_23 bus1=s_node_2_b.1.2 bus2=house_agg_0_B_8_node_2_23.1.2 phases=2 linecode=trip_line_config length=50.00 units=Ft
new line.trpln_agg_0_C_1_node_4_24 bus1=s_node_4_c.1.2 bus2=house_agg_0_C_1_node_4_24.1.2 phases=2 linecode=trip_line_config length=50.00 units=Ft
new line.trpln_agg_0_C_2_node_4_25 bus1=s_node_4_c.1.2 bus2=house_agg_0_C_2_node_4_25.1.2 phases=2 linecode=trip_line_config length=50.00 units=Ft
new line.trpln_agg_0_C_3_node_4_26 bus1=s_node_4_c.1.2 bus2=house_agg_0_C_3_node_4_26.1.2 phases=2 linecode=trip_line_config length=50.00 units=Ft
new line.trpln_agg_0_C_4_node_4_27 bus1=s_node_4_c.1.2 bus2=house_agg_0_C_4_node_4_27.1.2 phases=2 linecode=trip_line_config length=50.00 units=Ft
new line.trpln_agg_0_C_5_node_4_28 bus1=s_node_4_c.1.2 bus2=house_agg_0_C_5_node_4_28.1.2 phases=2 linecode=trip_line_config length=50.00 units=Ft
new line.trpln_agg_0_C_6_node_4_29 bus1=s_node_4_c.1.2 bus2=house_agg_0_C_6_node_4_29.1.2 phases=2 linecode=trip_line_config length=50.00 units=Ft
new line.trpln_agg_0_C_7_node_4_30 bus1=s_node_4_c.1.2 bus2=house_agg_0_C_7_node_4_30.1.2 phases=2 linecode=trip_line_config length=50.00 units=Ft
new line.trpln_agg_0_C_8_node_4_31 bus1=s_node_4_c.1.2 bus2=house_agg_0_C_8_node_4_31.1.2 phases=2 linecode=trip_line_config length=50.00 units=Ft
new line.trpln_agg_0_C_9_node_4_32 bus1=s_node_4_c.1.2 bus2=house_agg_0_C_9_node_4_32.1.2 phases=2 linecode=trip_line_config length=50.00 units=Ft
new line.trpln_agg_0_C_10_node_4_33 bus1=s_node_4_c.1.2 bus2=house_agg_0_C_10_node_4_33.1.2 phases=2 linecode=trip_line_config length=50.00 units=Ft
new line.trpln_agg_0_C_11_node_4_34 bus1=s_node_4_c.1.2 bus2=house_agg_0_C_11_node_4_34.1.2 phases=2 linecode=trip_line_config length=50.00 units=Ft
new line.trpln_agg_0_C_12_node_4_35 bus1=s_node_4_c.1.2 bus2=house_agg_0_C_12_node_4_35.1.2 phases=2 linecode=trip_line_config length=50.00 units=Ft
new line.trpln_agg_0_C_13_node_4_36 bus1=s_node_4_c.1.2 bus2=house_agg_0_C_13_node_4_36.1.2 phases=2 linecode=trip_line_config length=50.00 units=Ft
new line.trpln_agg_0_C_14_node_4_37 bus1=s_node_4_c.1.2 bus2=house_agg_0_C_14_node_4_37.1.2 phases=2 linecode=trip_line_config length=50.00 units=Ft
new line.trpln_agg_0_C_15_node_4_38 bus1=s_node_4_c.1.2 bus2=house_agg_0_C_15_node_4_38.1.2 phases=2 linecode=trip_line_config length=50.00 units=Ft
new line.trpln_agg_0_C_1_node_5_39 bus1=s_node_5_c.1.2 bus2=house_agg_0_C_1_node_5_39.1.2 phases=2 linecode=trip_line_config length=50.00 units=Ft
new line.trpln_agg_0_C_2_node_5_40 bus1=s_node_5_c.1.2 bus2=house_agg_0_C_2_node_5_40.1.2 phases=2 linecode=trip_line_config length=50.00 units=Ft
new line.trpln_agg_0_C_3_node_5_41 bus1=s_node_5_c.1.2 bus2=house_agg_0_C_3_node_5_41.1.2 phases=2 linecode=trip_line_config length=50.00 units=Ft
new line.trpln_agg_0_C_4_node_5_42 bus1=s_node_5_c.1.2 bus2=house_agg_0_C_4_node_5_42.1.2 phases=2 linecode=trip_line_config length=50.00 units=Ft
new line.trpln_agg_0_C_5_node_5_43 bus1=s_node_5_c.1.2 bus2=house_agg_0_C_5_node_5_43.1.2 phases=2 linecode=trip_line_config length=50.00 units=Ft
new line.trpln_agg_0_C_6_node_5_44 bus1=s_node_5_c.1.2 bus2=house_agg_0_C_6_node_5_44.1.2 phases=2 linecode=trip_line_config length=50.00 units=Ft
new line.trpln_agg_0_C_7_node_5_45 bus1=s_node_5_c.1.2 bus2=house_agg_0_C_7_node_5_45.1.2 phases=2 linecode=trip_line_config length=50.00 units=Ft
new line.trpln_agg_0_C_8_node_5_46 bus1=s_node_5_c.1.2 bus2=house_agg_0_C_8_node_5_46.1.2 phases=2 linecode=trip_line_config length=50.00 units=Ft
new line.trpln_agg_0_C_1_node_6_47 bus1=s_node_6_c.1.2 bus2=house_agg_0_C_1_node_6_47.1.2 phases=2 linecode=trip_line_config length=50.00 units=Ft
new line.trpln_agg_0_C_2_node_6_48 bus1=s_node_6_c.1.2 bus2=house_agg_0_C_2_node_6_48.1.2 phases=2 linecode=trip_line_config length=50.00 units=Ft
new line.trpln_agg_0_C_3_node_6_49 bus1=s_node_6_c.1.2 bus2=house_agg_0_C_3_node_6_49.1.2 phases=2 linecode=trip_line_config length=50.00 units=Ft
new line.trpln_agg_0_C_4_node_6_50 bus1=s_node_6_c.1.2 bus2=house_agg_0_C_4_node_6_50.1.2 phases=2 linecode=trip_line_config length=50.00 units=Ft
new line.trpln_agg_0_C_5_node_6_51 bus1=s_node_6_c.1.2 bus2=house_agg_0_C_5_node_6_51.1.2 phases=2 linecode=trip_line_config length=50.00 units=Ft
new line.trpln_agg_0_C_6_node_6_52 bus1=s_node_6_c.1.2 bus2=house_agg_0_C_6_node_6_52.1.2 phases=2 linecode=trip_line_config length=50.00 units=Ft
new line.trpln_agg_0_C_7_node_6_53 bus1=s_node_6_c.1.2 bus2=house_agg_0_C_7_node_6_53.1.2 phases=2 linecode=trip_line_config length=50.00 units=Ft
new line.trpln_agg_0_C_8_node_6_54 bus1=s_node_6_c.1.2 bus2=house_agg_0_C_8_node_6_54.1.2 phases=2 linecode=trip_line_config length=50.00 units=Ft
new line.trpln_agg_0_C_9_node_6_55 bus1=s_node_6_c.1.2 bus2=house_agg_0_C_9_node_6_55.1.2 phases=2 linecode=trip_line_config length=50.00 units=Ft
new line.trpln_agg_0_C_10_node_6_56 bus1=s_node_6_c.1.2 bus2=house_agg_0_C_10_node_6_56.1.2 phases=2 linecode=trip_line_config length=50.00 units=Ft
new line.trpln_agg_0_C_11_node_6_57 bus1=s_node_6_c.1.2 bus2=house_agg_0_C_11_node_6_57.1.2 phases=2 linecode=trip_line_config length=50.00 units=Ft
new line.trpln_agg_0_C_12_node_6_58 bus1=s_node_6_c.1.2 bus2=house_agg_0_C_12_node_6_58.1.2 phases=2 linecode=trip_line_config length=50.00 units=Ft
new line.trpln_agg_0_C_13_node_6_59 bus1=s_node_6_c.1.2 bus2=house_agg_0_C_13_node_6_59.1.2 phases=2 linecode=trip_line_config length=50.00 units=Ft
new line.trpln_agg_0_C_14_node_6_60 bus1=s_node_6_c.1.2 bus2=house_agg_0_C_14_node_6_60.1.2 phases=2 linecode=trip_line_config length=50.00 units=Ft
new line.trpln_agg_0_C_15_node_6_61 bus1=s_node_6_c.1.2 bus2=house_agg_0_C_15_node_6_61.1.2 phases=2 linecode=trip_line_config length=50.00 units=Ft
new line.trpln_agg_0_A_1_node_7_62 bus1=s_node_7_a.1.2 bus2=house_agg_0_A_1_node_7_62.1.2 phases=2 linecode=trip_line_config length=50.00 units=Ft
new line.trpln_agg_0_A_2_node_7_63 bus1=s_node_7_a.1.2 bus2=house_agg_0_A_2_node_7_63.1.2 phases=2 linecode=trip_line_config length=50.00 units=Ft
new line.trpln_agg_0_A_3_node_7_64 bus1=s_node_7_a.1.2 bus2=house_agg_0_A_3_node_7_64.1.2 phases=2 linecode=trip_line_config length=50.00 units=Ft
new line.trpln_agg_0_A_4_node_7_65 bus1=s_node_7_a.1.2 bus2=house_agg_0_A_4_node_7_65.1.2 phases=2 linecode=trip_line_config length=50.00 units=Ft
new line.trpln_agg_0_A_5_node_7_66 bus1=s_node_7_a.1.2 bus2=house_agg_0_A_5_node_7_66.1.2 phases=2 linecode=trip_line_config length=50.00 units=Ft
new line.trpln_agg_0_A_6_node_7_67 bus1=s_node_7_a.1.2 bus2=house_agg_0_A_6_node_7_67.1.2 phases=2 linecode=trip_line_config length=50.00 units=Ft
new line.trpln_agg_0_A_7_node_7_68 bus1=s_node_7_a.1.2 bus2=house_agg_0_A_7_node_7_68.1.2 phases=2 linecode=trip_line_config length=50.00 units=Ft
new line.trpln_agg_0_A_8_node_7_69 bus1=s_node_7_a.1.2 bus2=house_agg_0_A_8_node_7_69.1.2 phases=2 linecode=trip_line_config length=50.00 units=Ft
new line.trpln_agg_0_A_1_node_9_70 bus1=s_node_9_a.1.2 bus2=house_agg_0_A_1_node_9_70.1.2 phases=2 linecode=trip_line_config length=50.00 units=Ft
new line.trpln_agg_0_A_2_node_9_71 bus1=s_node_9_a.1.2 bus2=house_agg_0_A_2_node_9_71.1.2 phases=2 linecode=trip_line_config length=50.00 units=Ft
new line.trpln_agg_0_A_3_node_9_72 bus1=s_node_9_a.1.2 bus2=house_agg_0_A_3_node_9_72.1.2 phases=2 linecode=trip_line_config length=50.00 units=Ft
new line.trpln_agg_0_A_4_node_9_73 bus1=s_node_9_a.1.2 bus2=house_agg_0_A_4_node_9_73.1.2 phases=2 linecode=trip_line_config length=50.00 units=Ft
new line.trpln_agg_0_A_5_node_9_74 bus1=s_node_9_a.1.2 bus2=house_agg_0_A_5_node_9_74.1.2 phases=2 linecode=trip_line_config length=50.00 units=Ft
new line.trpln_agg_0_A_6_node_9_75 bus1=s_node_9_a.1.2 bus2=house_agg_0_A_6_node_9_75.1.2 phases=2 linecode=trip_line_config length=50.00 units=Ft
new line.trpln_agg_0_A_7_node_9_76 bus1=s_node_9_a.1.2 bus2=house_agg_0_A_7_node_9_76.1.2 phases=2 linecode=trip_line_config length=50.00 units=Ft
new line.trpln_agg_0_A_8_node_9_77 bus1=s_node_9_a.1.2 bus2=house_agg_0_A_8_node_9_77.1.2 phases=2 linecode=trip_line_config length=50.00 units=Ft
new line.trpln_agg_0_A_9_node_9_78 bus1=s_node_9_a.1.2 bus2=house_agg_0_A_9_node_9_78.1.2 phases=2 linecode=trip_line_config length=50.00 units=Ft
new line.trpln_agg_0_A_10_node_9_79 bus1=s_node_9_a.1.2 bus2=house_agg_0_A_10_node_9_79.1.2 phases=2 linecode=trip_line_config length=50.00 units=Ft
new line.trpln_agg_0_A_11_node_9_80 bus1=s_node_9_a.1.2 bus2=house_agg_0_A_11_node_9_80.1.2 phases=2 linecode=trip_line_config length=50.00 units=Ft
new line.trpln_agg_0_A_12_node_9_81 bus1=s_node_9_a.1.2 bus2=house_agg_0_A_12_node_9_81.1.2 phases=2 linecode=trip_line_config length=50.00 units=Ft
new line.trpln_agg_0_A_13_node_9_82 bus1=s_node_9_a.1.2 bus2=house_agg_0_A_13_node_9_82.1.2 phases=2 linecode=trip_line_config length=50.00 units=Ft
new line.trpln_agg_0_A_14_node_9_83 bus1=s_node_9_a.1.2 bus2=house_agg_0_A_14_node_9_83.1.2 phases=2 linecode=trip_line_config length=50.00 units=Ft
new line.trpln_agg_0_A_15_node_9_84 bus1=s_node_9_a.1.2 bus2=house_agg_0_A_15_node_9_84.1.2 phases=2 linecode=trip_line_config length=50.00 units=Ft
new line.trpln_agg_0_A_1_node_10_85 bus1=s_node_10_a.1.2 bus2=house_agg_0_A_1_node_10_85.1.2 phases=2 linecode=trip_line_config length=50.00 units=Ft
new line.trpln_agg_0_A_2_node_10_86 bus1=s_node_10_a.1.2 bus2=house_agg_0_A_2_node_10_86.1.2 phases=2 linecode=trip_line_config length=50.00 units=Ft
new line.trpln_agg_0_A_3_node_10_87 bus1=s_node_10_a.1.2 bus2=house_agg_0_A_3_node_10_87.1.2 phases=2 linecode=trip_line_config length=50.00 units=Ft
new line.trpln_agg_0_A_4_node_10_88 bus1=s_node_10_a.1.2 bus2=house_agg_0_A_4_node_10_88.1.2 phases=2 linecode=trip_line_config length=50.00 units=Ft
new line.trpln_agg_0_A_5_node_10_89 bus1=s_node_10_a.1.2 bus2=house_agg_0_A_5_node_10_89.1.2 phases=2 linecode=trip_line_config length=50.00 units=Ft
new line.trpln_agg_0_A_6_node_10_90 bus1=s_node_10_a.1.2 bus2=house_agg_0_A_6_node_10_90.1.2 phases=2 linecode=trip_line_config length=50.00 units=Ft
new line.trpln_agg_0_A_7_node_10_91 bus1=s_node_10_a.1.2 bus2=house_agg_0_A_7_node_10_91.1.2 phases=2 linecode=trip_line_config length=50.00 units=Ft
new line.trpln_agg_0_A_8_node_10_92 bus1=s_node_10_a.1.2 bus2=house_agg_0_A_8_node_10_92.1.2 phases=2 linecode=trip_line_config length=50.00 units=Ft
new line.trpln_agg_0_A_1_node_11_93 bus1=s_node_11_a.1.2 bus2=house_agg_0_A_1_node_11_93.1.2 phases=2 linecode=trip_line_config length=50.00 units=Ft
new line.trpln_agg_0_A_2_node_11_94 bus1=s_node_11_a.1.2 bus2=house_agg_0_A_2_node_11_94.1.2 phases=2 linecode=trip_line_config length=50.00 units=Ft
new line.trpln_agg_0_A_3_node_11_95 bus1=s_node_11_a.1.2 bus2=house_agg_0_A_3_node_11_95.1.2 phases=2 linecode=trip_line_config length=50.00 units=Ft
new line.trpln_agg_0_A_4_node_11_96 bus1=s_node_11_a.1.2 bus2=house_agg_0_A_4_node_11_96.1.2 phases=2 linecode=trip_line_config length=50.00 units=Ft
new line.trpln_agg_0_A_5_node_11_97 bus1=s_node_11_a.1.2 bus2=house_agg_0_A_5_node_11_97.1.2 phases=2 linecode=trip_line_config length=50.00 units=Ft
new line.trpln_agg_0_A_6_node_11_98 bus1=s_node_11_a.1.2 bus2=house_agg_0_A_6_node_11_98.1.2 phases=2 linecode=trip_line_config length=50.00 units=Ft
new line.trpln_agg_0_A_7_node_11_99 bus1=s_node_11_a.1.2 bus2=house_agg_0_A_7_node_11_99.1.2 phases=2 linecode=trip_line_config length=50.00 units=Ft
new line.trpln_agg_0_A_8_node_11_100 bus1=s_node_11_a.1.2 bus2=house_agg_0_A_8_node_11_100.1.2 phases=2 linecode=trip_line_config length=50.00 units=Ft
new line.trpln_agg_0_A_9_node_11_101 bus1=s_node_11_a.1.2 bus2=house_agg_0_A_9_node_11_101.1.2 phases=2 linecode=trip_line_config length=50.00 units=Ft
new line.trpln_agg_0_A_10_node_11_102 bus1=s_node_11_a.1.2 bus2=house_agg_0_A_10_node_11_102.1.2 phases=2 linecode=trip_line_config length=50.00 units=Ft
new line.trpln_agg_0_A_11_node_11_103 bus1=s_node_11_a.1.2 bus2=house_agg_0_A_11_node_11_103.1.2 phases=2 linecode=trip_line_config length=50.00 units=Ft
new line.trpln_agg_0_A_12_node_11_104 bus1=s_node_11_a.1.2 bus2=house_agg_0_A_12_node_11_104.1.2 phases=2 linecode=trip_line_config length=50.00 units=Ft
new line.trpln_agg_0_A_13_node_11_105 bus1=s_node_11_a.1.2 bus2=house_agg_0_A_13_node_11_105.1.2 phases=2 linecode=trip_line_config length=50.00 units=Ft
new line.trpln_agg_0_A_14_node_11_106 bus1=s_node_11_a.1.2 bus2=house_agg_0_A_14_node_11_106.1.2 phases=2 linecode=trip_line_config length=50.00 units=Ft
new line.trpln_agg_0_A_15_node_11_107 bus1=s_node_11_a.1.2 bus2=house_agg_0_A_15_node_11_107.1.2 phases=2 linecode=trip_line_config length=50.00 units=Ft
new line.trpln_agg_0_B_1_node_12_108 bus1=s_node_12_b.1.2 bus2=house_agg_0_B_1_node_12_108.1.2 phases=2 linecode=trip_line_config length=50.00 units=Ft
new line.trpln_agg_0_B_2_node_12_109 bus1=s_node_12_b.1.2 bus2=house_agg_0_B_2_node_12_109.1.2 phases=2 linecode=trip_line_config length=50.00 units=Ft
new line.trpln_agg_0_B_3_node_12_110 bus1=s_node_12_b.1.2 bus2=house_agg_0_B_3_node_12_110.1.2 phases=2 linecode=trip_line_config length=50.00 units=Ft
new line.trpln_agg_0_B_4_node_12_111 bus1=s_node_12_b.1.2 bus2=house_agg_0_B_4_node_12_111.1.2 phases=2 linecode=trip_line_config length=50.00 units=Ft
new line.trpln_agg_0_B_5_node_12_112 bus1=s_node_12_b.1.2 bus2=house_agg_0_B_5_node_12_112.1.2 phases=2 linecode=trip_line_config length=50.00 units=Ft
new line.trpln_agg_0_B_6_node_12_113 bus1=s_node_12_b.1.2 bus2=house_agg_0_B_6_node_12_113.1.2 phases=2 linecode=trip_line_config length=50.00 units=Ft
new line.trpln_agg_0_B_7_node_12_114 bus1=s_node_12_b.1.2 bus2=house_agg_0_B_7_node_12_114.1.2 phases=2 linecode=trip_line_config length=50.00 units=Ft
new line.trpln_agg_0_B_8_node_12_115 bus1=s_node_12_b.1.2 bus2=house_agg_0_B_8_node_12_115.1.2 phases=2 linecode=trip_line_config length=50.00 units=Ft
new line.trpln_agg_0_C_1_node_16_116 bus1=s_node_16_c.1.2 bus2=house_agg_0_C_1_node_16_116.1.2 phases=2 linecode=trip_line_config length=50.00 units=Ft
new line.trpln_agg_0_C_2_node_16_117 bus1=s_node_16_c.1.2 bus2=house_agg_0_C_2_node_16_117.1.2 phases=2 linecode=trip_line_config length=50.00 units=Ft
new line.trpln_agg_0_C_3_node_16_118 bus1=s_node_16_c.1.2 bus2=house_agg_0_C_3_node_16_118.1.2 phases=2 linecode=trip_line_config length=50.00 units=Ft
new line.trpln_agg_0_C_4_node_16_119 bus1=s_node_16_c.1.2 bus2=house_agg_0_C_4_node_16_119.1.2 phases=2 linecode=trip_line_config length=50.00 units=Ft
new line.trpln_agg_0_C_5_node_16_120 bus1=s_node_16_c.1.2 bus2=house_agg_0_C_5_node_16_120.1.2 phases=2 linecode=trip_line_config length=50.00 units=Ft
new line.trpln_agg_0_C_6_node_16_121 bus1=s_node_16_c.1.2 bus2=house_agg_0_C_6_node_16_121.1.2 phases=2 linecode=trip_line_config length=50.00 units=Ft
new line.trpln_agg_0_C_7_node_16_122 bus1=s_node_16_c.1.2 bus2=house_agg_0_C_7_node_16_122.1.2 phases=2 linecode=trip_line_config length=50.00 units=Ft
new line.trpln_agg_0_C_8_node_16_123 bus1=s_node_16_c.1.2 bus2=house_agg_0_C_8_node_16_123.1.2 phases=2 linecode=trip_line_config length=50.00 units=Ft
new line.trpln_agg_0_C_9_node_16_124 bus1=s_node_16_c.1.2 bus2=house_agg_0_C_9_node_16_124.1.2 phases=2 linecode=trip_line_config length=50.00 units=Ft
new line.trpln_agg_0_C_10_node_16_125 bus1=s_node_16_c.1.2 bus2=house_agg_0_C_10_node_16_125.1.2 phases=2 linecode=trip_line_config length=50.00 units=Ft
new line.trpln_agg_0_C_11_node_16_126 bus1=s_node_16_c.1.2 bus2=house_agg_0_C_11_node_16_126.1.2 phases=2 linecode=trip_line_config length=50.00 units=Ft
new line.trpln_agg_0_C_12_node_16_127 bus1=s_node_16_c.1.2 bus2=house_agg_0_C_12_node_16_127.1.2 phases=2 linecode=trip_line_config length=50.00 units=Ft
new line.trpln_agg_0_C_13_node_16_128 bus1=s_node_16_c.1.2 bus2=house_agg_0_C_13_node_16_128.1.2 phases=2 linecode=trip_line_config length=50.00 units=Ft
new line.trpln_agg_0_C_14_node_16_129 bus1=s_node_16_c.1.2 bus2=house_agg_0_C_14_node_16_129.1.2 phases=2 linecode=trip_line_config length=50.00 units=Ft
new line.trpln_agg_0_C_15_node_16_130 bus1=s_node_16_c.1.2 bus2=house_agg_0_C_15_node_16_130.1.2 phases=2 linecode=trip_line_config length=50.00 units=Ft
new line.trpln_agg_0_C_1_node_17_131 bus1=s_node_17_c.1.2 bus2=house_agg_0_C_1_node_17_131.1.2 phases=2 linecode=trip_line_config length=50.00 units=Ft
new line.trpln_agg_0_C_2_node_17_132 bus1=s_node_17_c.1.2 bus2=house_agg_0_C_2_node_17_132.1.2 phases=2 linecode=trip_line_config length=50.00 units=Ft
new line.trpln_agg_0_C_3_node_17_133 bus1=s_node_17_c.1.2 bus2=house_agg_0_C_3_node_17_133.1.2 phases=2 linecode=trip_line_config length=50.00 units=Ft
new line.trpln_agg_0_C_4_node_17_134 bus1=s_node_17_c.1.2 bus2=house_agg_0_C_4_node_17_134.1.2 phases=2 linecode=trip_line_config length=50.00 units=Ft
new line.trpln_agg_0_C_5_node_17_135 bus1=s_node_17_c.1.2 bus2=house_agg_0_C_5_node_17_135.1.2 phases=2 linecode=trip_line_config length=50.00 units=Ft
new line.trpln_agg_0_C_6_node_17_136 bus1=s_node_17_c.1.2 bus2=house_agg_0_C_6_node_17_136.1.2 phases=2 linecode=trip_line_config length=50.00 units=Ft
new line.trpln_agg_0_C_7_node_17_137 bus1=s_node_17_c.1.2 bus2=house_agg_0_C_7_node_17_137.1.2 phases=2 linecode=trip_line_config length=50.00 units=Ft
new line.trpln_agg_0_C_8_node_17_138 bus1=s_node_17_c.1.2 bus2=house_agg_0_C_8_node_17_138.1.2 phases=2 linecode=trip_line_config length=50.00 units=Ft
new line.trpln_agg_0_A_1_node_19_139 bus1=s_node_19_a.1.2 bus2=house_agg_0_A_1_node_19_139.1.2 phases=2 linecode=trip_line_config length=50.00 units=Ft
new line.trpln_agg_0_A_2_node_19_140 bus1=s_node_19_a.1.2 bus2=house_agg_0_A_2_node_19_140.1.2 phases=2 linecode=trip_line_config length=50.00 units=Ft
new line.trpln_agg_0_A_3_node_19_141 bus1=s_node_19_a.1.2 bus2=house_agg_0_A_3_node_19_141.1.2 phases=2 linecode=trip_line_config length=50.00 units=Ft
new line.trpln_agg_0_A_4_node_19_142 bus1=s_node_19_a.1.2 bus2=house_agg_0_A_4_node_19_142.1.2 phases=2 linecode=trip_line_config length=50.00 units=Ft
new line.trpln_agg_0_A_5_node_19_143 bus1=s_node_19_a.1.2 bus2=house_agg_0_A_5_node_19_143.1.2 phases=2 linecode=trip_line_config length=50.00 units=Ft
new line.trpln_agg_0_A_6_node_19_144 bus1=s_node_19_a.1.2 bus2=house_agg_0_A_6_node_19_144.1.2 phases=2 linecode=trip_line_config length=50.00 units=Ft
new line.trpln_agg_0_A_7_node_19_145 bus1=s_node_19_a.1.2 bus2=house_agg_0_A_7_node_19_145.1.2 phases=2 linecode=trip_line_config length=50.00 units=Ft
new line.trpln_agg_0_A_8_node_19_146 bus1=s_node_19_a.1.2 bus2=house_agg_0_A_8_node_19_146.1.2 phases=2 linecode=trip_line_config length=50.00 units=Ft
new line.trpln_agg_0_A_9_node_19_147 bus1=s_node_19_a.1.2 bus2=house_agg_0_A_9_node_19_147.1.2 phases=2 linecode=trip_line_config length=50.00 units=Ft
new line.trpln_agg_0_A_10_node_19_148 bus1=s_node_19_a.1.2 bus2=house_agg_0_A_10_node_19_148.1.2 phases=2 linecode=trip_line_config length=50.00 units=Ft
new line.trpln_agg_0_A_11_node_19_149 bus1=s_node_19_a.1.2 bus2=house_agg_0_A_11_node_19_149.1.2 phases=2 linecode=trip_line_config length=50.00 units=Ft
new line.trpln_agg_0_A_12_node_19_150 bus1=s_node_19_a.1.2 bus2=house_agg_0_A_12_node_19_150.1.2 phases=2 linecode=trip_line_config length=50.00 units=Ft
new line.trpln_agg_0_A_13_node_19_151 bus1=s_node_19_a.1.2 bus2=house_agg_0_A_13_node_19_151.1.2 phases=2 linecode=trip_line_config length=50.00 units=Ft
new line.trpln_agg_0_A_14_node_19_152 bus1=s_node_19_a.1.2 bus2=house_agg_0_A_14_node_19_152.1.2 phases=2 linecode=trip_line_config length=50.00 units=Ft
new line.trpln_agg_0_A_15_node_19_153 bus1=s_node_19_a.1.2 bus2=house_agg_0_A_15_node_19_153.1.2 phases=2 linecode=trip_line_config length=50.00 units=Ft
new line.trpln_agg_0_A_1_node_20_154 bus1=s_node_20_a.1.2 bus2=house_agg_0_A_1_node_20_154.1.2 phases=2 linecode=trip_line_config length=50.00 units=Ft
new line.trpln_agg_0_A_2_node_20_155 bus1=s_node_20_a.1.2 bus2=house_agg_0_A_2_node_20_155.1.2 phases=2 linecode=trip_line_config length=50.00 units=Ft
new line.trpln_agg_0_A_3_node_20_156 bus1=s_node_20_a.1.2 bus2=house_agg_0_A_3_node_20_156.1.2 phases=2 linecode=trip_line_config length=50.00 units=Ft
new line.trpln_agg_0_A_4_node_20_157 bus1=s_node_20_a.1.2 bus2=house_agg_0_A_4_node_20_157.1.2 phases=2 linecode=trip_line_config length=50.00 units=Ft
new line.trpln_agg_0_A_5_node_20_158 bus1=s_node_20_a.1.2 bus2=house_agg_0_A_5_node_20_158.1.2 phases=2 linecode=trip_line_config length=50.00 units=Ft
new line.trpln_agg_0_A_6_node_20_159 bus1=s_node_20_a.1.2 bus2=house_agg_0_A_6_node_20_159.1.2 phases=2 linecode=trip_line_config length=50.00 units=Ft
new line.trpln_agg_0_A_7_node_20_160 bus1=s_node_20_a.1.2 bus2=house_agg_0_A_7_node_20_160.1.2 phases=2 linecode=trip_line_config length=50.00 units=Ft
new line.trpln_agg_0_A_8_node_20_161 bus1=s_node_20_a.1.2 bus2=house_agg_0_A_8_node_20_161.1.2 phases=2 linecode=trip_line_config length=50.00 units=Ft
new line.trpln_agg_0_A_9_node_20_162 bus1=s_node_20_a.1.2 bus2=house_agg_0_A_9_node_20_162.1.2 phases=2 linecode=trip_line_config length=50.00 units=Ft
new line.trpln_agg_0_A_10_node_20_163 bus1=s_node_20_a.1.2 bus2=house_agg_0_A_10_node_20_163.1.2 phases=2 linecode=trip_line_config length=50.00 units=Ft
new line.trpln_agg_0_A_11_node_20_164 bus1=s_node_20_a.1.2 bus2=house_agg_0_A_11_node_20_164.1.2 phases=2 linecode=trip_line_config length=50.00 units=Ft
new line.trpln_agg_0_A_12_node_20_165 bus1=s_node_20_a.1.2 bus2=house_agg_0_A_12_node_20_165.1.2 phases=2 linecode=trip_line_config length=50.00 units=Ft
new line.trpln_agg_0_A_13_node_20_166 bus1=s_node_20_a.1.2 bus2=house_agg_0_A_13_node_20_166.1.2 phases=2 linecode=trip_line_config length=50.00 units=Ft
new line.trpln_agg_0_A_14_node_20_167 bus1=s_node_20_a.1.2 bus2=house_agg_0_A_14_node_20_167.1.2 phases=2 linecode=trip_line_config length=50.00 units=Ft
new line.trpln_agg_0_A_15_node_20_168 bus1=s_node_20_a.1.2 bus2=house_agg_0_A_15_node_20_168.1.2 phases=2 linecode=trip_line_config length=50.00 units=Ft
new line.trpln_agg_1_B_1_node_22_169 bus1=s_node_22_b.1.2 bus2=house_agg_1_B_1_node_22_169.1.2 phases=2 linecode=trip_line_config length=50.00 units=Ft
new line.trpln_agg_1_B_2_node_22_170 bus1=s_node_22_b.1.2 bus2=house_agg_1_B_2_node_22_170.1.2 phases=2 linecode=trip_line_config length=50.00 units=Ft
new line.trpln_agg_1_B_3_node_22_171 bus1=s_node_22_b.1.2 bus2=house_agg_1_B_3_node_22_171.1.2 phases=2 linecode=trip_line_config length=50.00 units=Ft
new line.trpln_agg_1_B_4_node_22_172 bus1=s_node_22_b.1.2 bus2=house_agg_1_B_4_node_22_172.1.2 phases=2 linecode=trip_line_config length=50.00 units=Ft
new line.trpln_agg_1_B_5_node_22_173 bus1=s_node_22_b.1.2 bus2=house_agg_1_B_5_node_22_173.1.2 phases=2 linecode=trip_line_config length=50.00 units=Ft
new line.trpln_agg_1_B_6_node_22_174 bus1=s_node_22_b.1.2 bus2=house_agg_1_B_6_node_22_174.1.2 phases=2 linecode=trip_line_config length=50.00 units=Ft
new line.trpln_agg_1_B_7_node_22_175 bus1=s_node_22_b.1.2 bus2=house_agg_1_B_7_node_22_175.1.2 phases=2 linecode=trip_line_config length=50.00 units=Ft
new line.trpln_agg_1_B_8_node_22_176 bus1=s_node_22_b.1.2 bus2=house_agg_1_B_8_node_22_176.1.2 phases=2 linecode=trip_line_config length=50.00 units=Ft
new line.trpln_agg_1_B_9_node_22_177 bus1=s_node_22_b.1.2 bus2=house_agg_1_B_9_node_22_177.1.2 phases=2 linecode=trip_line_config length=50.00 units=Ft
new line.trpln_agg_1_B_10_node_22_178 bus1=s_node_22_b.1.2 bus2=house_agg_1_B_10_node_22_178.1.2 phases=2 linecode=trip_line_config length=50.00 units=Ft
new line.trpln_agg_1_B_11_node_22_179 bus1=s_node_22_b.1.2 bus2=house_agg_1_B_11_node_22_179.1.2 phases=2 linecode=trip_line_config length=50.00 units=Ft
new line.trpln_agg_1_B_12_node_22_180 bus1=s_node_22_b.1.2 bus2=house_agg_1_B_12_node_22_180.1.2 phases=2 linecode=trip_line_config length=50.00 units=Ft
new line.trpln_agg_1_B_13_node_22_181 bus1=s_node_22_b.1.2 bus2=house_agg_1_B_13_node_22_181.1.2 phases=2 linecode=trip_line_config length=50.00 units=Ft
new line.trpln_agg_1_B_14_node_22_182 bus1=s_node_22_b.1.2 bus2=house_agg_1_B_14_node_22_182.1.2 phases=2 linecode=trip_line_config length=50.00 units=Ft
new line.trpln_agg_1_B_15_node_22_183 bus1=s_node_22_b.1.2 bus2=house_agg_1_B_15_node_22_183.1.2 phases=2 linecode=trip_line_config length=50.00 units=Ft
new line.trpln_agg_1_C_1_node_24_184 bus1=s_node_24_c.1.2 bus2=house_agg_1_C_1_node_24_184.1.2 phases=2 linecode=trip_line_config length=50.00 units=Ft
new line.trpln_agg_1_C_2_node_24_185 bus1=s_node_24_c.1.2 bus2=house_agg_1_C_2_node_24_185.1.2 phases=2 linecode=trip_line_config length=50.00 units=Ft
new line.trpln_agg_1_C_3_node_24_186 bus1=s_node_24_c.1.2 bus2=house_agg_1_C_3_node_24_186.1.2 phases=2 linecode=trip_line_config length=50.00 units=Ft
new line.trpln_agg_1_C_4_node_24_187 bus1=s_node_24_c.1.2 bus2=house_agg_1_C_4_node_24_187.1.2 phases=2 linecode=trip_line_config length=50.00 units=Ft
new line.trpln_agg_1_C_5_node_24_188 bus1=s_node_24_c.1.2 bus2=house_agg_1_C_5_node_24_188.1.2 phases=2 linecode=trip_line_config length=50.00 units=Ft
new line.trpln_agg_1_C_6_node_24_189 bus1=s_node_24_c.1.2 bus2=house_agg_1_C_6_node_24_189.1.2 phases=2 linecode=trip_line_config length=50.00 units=Ft
new line.trpln_agg_1_C_7_node_24_190 bus1=s_node_24_c.1.2 bus2=house_agg_1_C_7_node_24_190.1.2 phases=2 linecode=trip_line_config length=50.00 units=Ft
new line.trpln_agg_1_C_8_node_24_191 bus1=s_node_24_c.1.2 bus2=house_agg_1_C_8_node_24_191.1.2 phases=2 linecode=trip_line_config length=50.00 units=Ft
new line.trpln_agg_1_C_9_node_24_192 bus1=s_node_24_c.1.2 bus2=house_agg_1_C_9_node_24_192.1.2 phases=2 linecode=trip_line_config length=50.00 units=Ft
new line.trpln_agg_1_C_10_node_24_193 bus1=s_node_24_c.1.2 bus2=house_agg_1_C_10_node_24_193.1.2 phases=2 linecode=trip_line_config length=50.00 units=Ft
new line.trpln_agg_1_C_11_node_24_194 bus1=s_node_24_c.1.2 bus2=house_agg_1_C_11_node_24_194.1.2 phases=2 linecode=trip_line_config length=50.00 units=Ft
new line.trpln_agg_1_C_12_node_24_195 bus1=s_node_24_c.1.2 bus2=house_agg_1_C_12_node_24_195.1.2 phases=2 linecode=trip_line_config length=50.00 units=Ft
new line.trpln_agg_1_C_13_node_24_196 bus1=s_node_24_c.1.2 bus2=house_agg_1_C_13_node_24_196.1.2 phases=2 linecode=trip_line_config length=50.00 units=Ft
new line.trpln_agg_1_C_14_node_24_197 bus1=s_node_24_c.1.2 bus2=house_agg_1_C_14_node_24_197.1.2 phases=2 linecode=trip_line_config length=50.00 units=Ft
new line.trpln_agg_1_C_15_node_24_198 bus1=s_node_24_c.1.2 bus2=house_agg_1_C_15_node_24_198.1.2 phases=2 linecode=trip_line_config length=50.00 units=Ft
new line.trpln_agg_1_A_1_node_28_199 bus1=s_node_28_a.1.2 bus2=house_agg_1_A_1_node_28_199.1.2 phases=2 linecode=trip_line_config length=50.00 units=Ft
new line.trpln_agg_1_A_2_node_28_200 bus1=s_node_28_a.1.2 bus2=house_agg_1_A_2_node_28_200.1.2 phases=2 linecode=trip_line_config length=50.00 units=Ft
...
