circuit/TpxLoads.dss
! Triplex Load Definitions 

new load.house_agg_0_A_1_node_1_1_240v phases=2 bus1=house_agg_0_A_1_node_1_1.1.2 conn=wye kv=0.208 kw=3.000 kvar=0.000
new load.house_agg_0_A_2_node_1_2_240v phases=2 bus1=house_agg_0_A_2_node_1_2.1.2 conn=wye kv=0.208 kw=3.000 kvar=0.000
new load.house_agg_0_A_3_node_1_3_240v phases=2 bus1=house_agg_0_A_3_node_1_3.1.2 conn=wye kv=0.208 kw=3.000 kvar=0.000
new load.house_agg_0_A_4_node_1_4_240v phases=2 bus1=house_agg_0_A_4_node_1_4.1.2 conn=wye kv=0.208 kw=3.000 kvar=0.000
new load.house_agg_0_A_5_node_1_5_240v phases=2 bus1=house_agg_0_A_5_node_1_5.1.2 conn=wye kv=0.208 kw=3.000 kvar=0.000
new load.house_agg_0_A_6_node_1_6_240v phases=2 bus1=house_agg_0_A_6_node_1_6.1.2 conn=wye kv=0.208 kw=3.000 kvar=0.000
new load.house_agg_0_A_7_node_1_7_240v phases=2 bus1=house_agg_0_A_7_node_1_7.1.2 conn=wye kv=0.208 kw=3.000 kvar=0.000
new load.house_agg_0_A_8_node_1_8_240v phases=2 bus1=house_agg_0_A_8_node_1_8.1.2 conn=wye kv=0.208 kw=3.000 kvar=0.000
new load.house_agg_0_A_9_node_1_9_240v phases=2 bus1=house_agg_0_A_9_node_1_9.1.2 conn=wye kv=0.208 kw=3.000 kvar=0.000
new load.house_agg_0_A_10_node_1_10_240v phases=2 bus1=house_agg_0_A_10_node_1_10.1.2 conn=wye kv=0.208 kw=3.000 kvar=0.000
new load.house_agg_0_A_11_node_1_11_240v phases=2 bus1=house_agg_0_A_11_node_1_11.1.2 conn=wye kv=0.208 kw=3.000 kvar=0.000
new load.house_agg_0_A_12_node_1_12_240v phases=2 bus1=house_agg_0_A_12_node_1_12.1.2 conn=wye kv=0.208 kw=3.000 kvar=0.000
new load.house_agg_0_A_13_node_1_13_240v phases=2 bus1=house_agg_0_A_13_node_1_13.1.2 conn=wye kv=0.208 kw=3.000 kvar=0.000
new load.house_agg_0_A_14_node_1_14_240v phases=2 bus1=house_agg_0_A_14_node_1_14.1.2 conn=wye kv=0.208 kw=3.000 kvar=0.000
new load.house_agg_0_A_15_node_1_15_240v phases=2 bus1=house_agg_0_A_15_node_1_15.1.2 conn=wye kv=0.208 kw=3.000 kvar=0.000
new load.house_agg_0_B_1_node_2_16_240v phases=2 bus1=house_agg_0_B_1_node_2_16.1.2 conn=wye kv=0.208 kw=3.000 kvar=0.000
new load.house_agg_0_B_2_node_2_17_240v phases=2 bus1=house_agg_0_B_2_node_2_17.1.2 conn=wye kv=0.208 kw=3.000 kvar=0.000
new load.house_agg_0_B_3_node_2_18_240v phases=2 bus1=house_agg_0_B_3_node_2_18.1.2 conn=wye kv=0.208 kw=3.000 kvar=0.000
new load.house_agg_0_B_4_node_2_19_240v phases=2 bus1=house_agg_0_B_4_node_2_19.1.2 conn=wye kv=0.208 kw=3.000 kvar=0.000
new load.house_agg_0_B_5_node_2_20_240v phases=2 bus1=house_agg_0_B_5_node_2_20.1.2 conn=wye kv=0.208 kw=3.000 kvar=0.000
new load.house_agg_0_B_6_node_2_21_240v phases=2 bus1=house_agg_0_B_6_node_2_21.1.2 conn=wye kv=0.208 kw=3.000 kvar=0.000
new load.house_agg_0_B_7_node_2_22_240v phases=2 bus1=house_agg_0_B_7_node_2_22.1.2 conn=wye kv=0.208 kw=3.000 kvar=0.000
new load.house_agg_0_B_8_node_2_23_240v phases=2 bus1=house_agg_0_B_8_node_2_23.1.2 conn=wye kv=0.208 kw=3.000 kvar=0.000
new load.house_agg_0_C_1_node_4_24_240v phases=2 bus1=house_agg_0_C_1_node_4_24.1.2 conn=wye kv=0.208 kw=3.000 kvar=0.000
new load.house_agg_0_C_2_node_4_25_240v phases=2 bus1=house_agg_0_C_2_node_4_25.1.2 conn=wye kv=0.208 kw=3.000 kvar=0.000
new load.house_agg_0_C_3_node_4_26_240v phases=2 bus1=house_agg_0_C_3_node_4_26.1.2 conn=wye kv=0.208 kw=3.000 kvar=0.000
new load.house_agg_0_C_4_node_4_27_240v phases=2 bus1=house_agg_0_C_4_node_4_27.1.2 conn=wye kv=0.208 kw=3.000 kvar=0.000
new load.house_agg_0_C_5_node_4_28_240v phases=2 bus1=house_agg_0_C_5_node_4_28.1.2 conn=wye kv=0.208 kw=3.000 kvar=0.000
new load.house_agg_0_C_6_node_4_29_240v phases=2 bus1=house_agg_0_C_6_node_4_29.1.2 conn=wye kv=0.208 kw=3.000 kvar=0.000
new load.house_agg_0_C_7_node_4_30_240v phases=2 bus1=house_agg_0_C_7_node_4_30.1.2 conn=wye kv=0.208 kw=3.000 kvar=0.000
new load.house_agg_0_C_8_node_4_31_240v phases=2 bus1=house_agg_0_C_8_node_4_31.1.2 conn=wye kv=0.208 kw=3.000 kvar=0.000
new load.house_agg_0_C_9_node_4_32_240v phases=2 bus1=house_agg_0_C_9_node_4_32.1.2 conn=wye kv=0.208 kw=3.000 kvar=0.000
new load.house_agg_0_C_10_node_4_33_240v phases=2 bus1=house_agg_0_C_10_node_4_33.1.2 conn=wye kv=0.208 kw=3.000 kvar=0.000
new load.house_agg_0_C_11_node_4_34_240v phases=2 bus1=house_agg_0_C_11_node_4_34.1.2 conn=wye kv=0.208 kw=3.000 kvar=0.000
new load.house_agg_0_C_12_node_4_35_240v phases=2 bus1=house_agg_0_C_12_node_4_35.1.2 conn=wye kv=0.208 kw=3.000 kvar=0.000
new load.house_agg_0_C_13_node_4_36_240v phases=2 bus1=house_agg_0_C_13_node_4_36.1.2 conn=wye kv=0.208 kw=3.000 kvar=0.000
new load.house_agg_0_C_14_node_4_37_240v phases=2 bus1=house_agg_0_C_14_node_4_37.1.2 conn=wye kv=0.208 kw=3.000 kvar=0.000
new load.house_agg_0_C_15_node_4_38_240v phases=2 bus1=house_agg_0_C_15_node_4_38.1.2 conn=wye kv=0.208 kw=3.000 kvar=0.000
new load.house_agg_0_C_1_node_5_39_240v phases=2 bus1=house_agg_0_C_1_node_5_39.1.2 conn=wye kv=0.208 kw=3.000 kvar=0.000
new load.house_agg_0_C_2_node_5_40_240v phases=2 bus1=house_agg_0_C_2_node_5_40.1.2 conn=wye kv=0.208 kw=3.000 kvar=0.000
new load.house_agg_0_C_3_node_5_41_240v phases=2 bus1=house_agg_0_C_3_node_5_41.1.2 conn=wye kv=0.208 kw=3.000 kvar=0.000
new load.house_agg_0_C_4_node_5_42_240v phases=2 bus1=house_agg_0_C_4_node_5_42.1.2 conn=wye kv=0.208 kw=3.000 kvar=0.000
new load.house_agg_0_C_5_node_5_43_240v phases=2 bus1=house_agg_0_C_5_node_5_43.1.2 conn=wye kv=0.208 kw=3.000 kvar=0.000
new load.house_agg_0_C_6_node_5_44_240v phases=2 bus1=house_agg_0_C_6_node_5_44.1.2 conn=wye kv=0.208 kw=3.000 kvar=0.000
new load.house_agg_0_C_7_node_5_45_240v phases=2 bus1=house_agg_0_C_7_node_5_45.1.2 conn=wye kv=0.208 kw=3.000 kvar=0.000
new load.house_agg_0_C_8_node_5_46_240v phases=2 bus1=house_agg_0_C_8_node_5_46.1.2 conn=wye kv=0.208 kw=3.000 kvar=0.000
new load.house_agg_0_C_1_node_6_47_240v phases=2 bus1=house_agg_0_C_1_node_6_47.1.2 conn=wye kv=0.208 kw=3.000 kvar=0.000
new load.house_agg_0_C_2_node_6_48_240v phases=2 bus1=house_agg_0_C_2_node_6_48.1.2 conn=wye kv=0.208 kw=3.000 kvar=0.000
new load.house_agg_0_C_3_node_6_49_240v phases=2 bus1=house_agg_0_C_3_node_6_49.1.2 conn=wye kv=0.208 kw=3.000 kvar=0.000
new load.house_agg_0_C_4_node_6_50_240v phases=2 bus1=house_agg_0_C_4_node_6_50.1.2 conn=wye kv=0.208 kw=3.000 kvar=0.000
new load.house_agg_0_C_5_node_6_51_240v phases=2 bus1=house_agg_0_C_5_node_6_51.1.2 conn=wye kv=0.208 kw=3.000 kvar=0.000
new load.house_agg_0_C_6_node_6_52_240v phases=2 bus1=house_agg_0_C_6_node_6_52.1.2 conn=wye kv=0.208 kw=3.000 kvar=0.000
new load.house_agg_0_C_7_node_6_53_240v phases=2 bus1=house_agg_0_C_7_node_6_53.1.2 conn=wye kv=0.208 kw=3.000 kvar=0.000
new load.house_agg_0_C_8_node_6_54_240v phases=2 bus1=house_agg_0_C_8_node_6_54.1.2 conn=wye kv=0.208 kw=3.000 kvar=0.000
new load.house_agg_0_C_9_node_6_55_240v phases=2 bus1=house_agg_0_C_9_node_6_55.1.2 conn=wye kv=0.208 kw=3.000 kvar=0.000
new load.house_agg_0_C_10_node_6_56_240v phases=2 bus1=house_agg_0_C_10_node_6_56.1.2 conn=wye kv=0.208 kw=3.000 kvar=0.000
new load.house_agg_0_C_11_node_6_57_240v phases=2 bus1=house_agg_0_C_11_node_6_57.1.2 conn=wye kv=0.208 kw=3.000 kvar=0.000
new load.house_agg_0_C_12_node_6_58_240v phases=2 bus1=house_agg_0_C_12_node_6_58.1.2 conn=wye kv=0.208 kw=3.000 kvar=0.000
new load.house_agg_0_C_13_node_6_59_240v phases=2 bus1=house_agg_0_C_13_node_6_59.1.2 conn=wye kv=0.208 kw=3.000 kvar=0.000
new load.house_agg_0_C_14_node_6_60_240v phases=2 bus1=house_agg_0_C_14_node_6_60.1.2 conn=wye kv=0.208 kw=3.000 kvar=0.000
new load.house_agg_0_C_15_node_6_61_240v phases=2 bus1=house_agg_0_C_15_node_6_61.1.2 conn=wye kv=0.208 kw=3.000 kvar=0.000
new load.house_agg_0_A_1_node_7_62_240v phases=2 bus1=house_agg_0_A_1_node_7_62.1.2 conn=wye kv=0.208 kw=3.000 kvar=0.000
new load.house_agg_0_A_2_node_7_63_240v phases=2 bus1=house_agg_0_A_2_node_7_63.1.2 conn=wye kv=0.208 kw=3.000 kvar=0.000
new load.house_agg_0_A_3_node_7_64_240v phases=2 bus1=house_agg_0_A_3_node_7_64.1.2 conn=wye kv=0.208 kw=3.000 kvar=0.000
new load.house_agg_0_A_4_node_7_65_240v phases=2 bus1=house_agg_0_A_4_node_7_65.1.2 conn=wye kv=0.208 kw=3.000 kvar=0.000
new load.house_agg_0_A_5_node_7_66_240v phases=2 bus1=house_agg_0_A_5_node_7_66.1.2 conn=wye kv=0.208 kw=3.000 kvar=0.000
new load.house_agg_0_A_6_node_7_67_240v phases=2 bus1=house_agg_0_A_6_node_7_67.1.2 conn=wye kv=0.208 kw=3.000 kvar=0.000
new load.house_agg_0_A_7_node_7_68_240v phases=2 bus1=house_agg_0_A_7_node_7_68.1.2 conn=wye kv=0.208 kw=3.000 kvar=0.000
new load.house_agg_0_A_8_node_7_69_240v phases=2 bus1=house_agg_0_A_8_node_7_69.1.2 conn=wye kv=0.208 kw=3.000 kvar=0.000
new load.house_agg_0_A_1_node_9_70_240v phases=2 bus1=house_agg_0_A_1_node_9_70.1.2 conn=wye kv=0.208 kw=3.000 kvar=0.000
new load.house_agg_0_A_2_node_9_71_240v phases=2 bus1=house_agg_0_A_2_node_9_71.1.2 conn=wye kv=0.208 kw=3.000 kvar=0.000
new load.house_agg_0_A_3_node_9_72_240v phases=2 bus1=house_agg_0_A_3_node_9_72.1.2 conn=wye kv=0.208 kw=3.000 kvar=0.000
new load.house_agg_0_A_4_node_9_73_240v phases=2 bus1=house_agg_0_A_4_node_9_73.1.2 conn=wye kv=0.208 kw=3.000 kvar=0.000
new load.house_agg_0_A_5_node_9_74_240v phases=2 bus1=house_agg_0_A_5_node_9_74.1.2 conn=wye kv=0.208 kw=3.000 kvar=0.000
new load.house_agg_0_A_6_node_9_75_240v phases=2 bus1=house_agg_0_A_6_node_9_75.1.2 conn=wye kv=0.208 kw=3.000 kvar=0.000
new load.house_agg_0_A_7_node_9_76_240v phases=2 bus1=house_agg_0_A_7_node_9_76.1.2 conn=wye kv=0.208 kw=3.000 kvar=0.000
new load.house_agg_0_A_8_node_9_77_240v phases=2 bus1=house_agg_0_A_8_node_9_77.1.2 conn=wye kv=0.208 kw=3.000 kvar=0.000
new load.house_agg_0_A_9_node_9_78_240v phases=2 bus1=house_agg_0_A_9_node_9_78.1.2 conn=wye kv=0.208 kw=3.000 kvar=0.000
new load.house_agg_0_A_10_node_9_79_240v phases=2 bus1=house_agg_0_A_10_node_9_79.1.2 conn=wye kv=0.208 kw=3.000 kvar=0.000
new load.house_agg_0_A_11_node_9_80_240v phases=2 bus1=house_agg_0_A_11_node_9_80.1.2 conn=wye kv=0.208 kw=3.000 kvar=0.000
new load.house_agg_0_A_12_node_9_81_240v phases=2 bus1=house_agg_0_A_12_node_9_81.1.2 conn=wye kv=0.208 kw=3.000 kvar=0.000
new load.house_agg_0_A_13_node_9_82_240v phases=2 bus1=house_agg_0_A_13_node_9_82.1.2 conn=wye kv=0.208 kw=3.000 kvar=0.000
new load.house_agg_0_A_14_node_9_83_240v phases=2 bus1=house_agg_0_A_14_node_9_83.1.2 conn=wye kv=0.208 kw=3.000 kvar=0.000
new load.house_agg_0_A_15_node_9_84_240v phases=2 bus1=house_agg_0_A_15_node_9_84.1.2 conn=wye kv=0.208 kw=3.000 kvar=0.000
new load.house_agg_0_A_1_node_10_85_240v phases=2 bus1=house_agg_0_A_1_node_10_85.1.2 conn=wye kv=0.208 kw=3.000 kvar=0.000
new load.house_agg_0_A_2_node_10_86_240v phases=2 bus1=house_agg_0_A_2_node_10_86.1.2 conn=wye kv=0.208 kw=3.000 kvar=0.000
new load.house_agg_0_A_3_node_10_87_240v phases=2 bus1=house_agg_0_A_3_node_10_87.1.2 conn=wye kv=0.208 kw=3.000 kvar=0.000
new load.house_agg_0_A_4_node_10_88_240v phases=2 bus1=house_agg_0_A_4_node_10_88.1.2 conn=wye kv=0.208 kw=3.000 kvar=0.000
new load.house_agg_0_A_5_node_10_89_240v phases=2 bus1=house_agg_0_A_5_node_10_89.1.2 conn=wye kv=0.208 kw=3.000 kvar=0.000
new load.house_agg_0_A_6_node_10_90_240v phases=2 bus1=house_agg_0_A_6_node_10_90.1.2 conn=wye kv=0.208 kw=3.000 kvar=0.000
new load.house_agg_0_A_7_node_10_91_240v phases=2 bus1=house_agg_0_A_7_node_10_91.1.2 conn=wye kv=0.208 kw=3.000 kvar=0.000
new load.house_agg_0_A_8_node_10_92_240v phases=2 bus1=house_agg_0_A_8_node_10_92.1.2 conn=wye kv=0.208 kw=3.000 kvar=0.000
new load.house_agg_0_A_1_node_11_93_240v phases=2 bus1=house_agg_0_A_1_node_11_93.1.2 conn=wye kv=0.208 kw=3.000 kvar=0.000
new load.house_agg_0_A_2_node_11_94_240v phases=2 bus1=house_agg_0_A_2_node_11_94.1.2 conn=wye kv=0.208 kw=3.000 kvar=0.000
new load.house_agg_0_A_3_node_11_95_240v phases=2 bus1=house_agg_0_A_3_node_11_95.1.2 conn=wye kv=0.208 kw=3.000 kvar=0.000
new load.house_agg_0_A_4_node_11_96_240v phases=2 bus1=house_agg_0_A_4_node_11_96.1.2 conn=wye kv=0.208 kw=3.000 kvar=0.000
new load.house_agg_0_A_5_node_11_97_240v phases=2 bus1=house_agg_0_A_5_node_11_97.1.2 conn=wye kv=0.208 kw=3.000 kvar=0.000
new load.house_agg_0_A_6_node_11_98_240v phases=2 bus1=house_agg_0_A_6_node_11_98.1.2 conn=wye kv=0.208 kw=3.000 kvar=0.000
new load.house_agg_0_A_7_node_11_99_240v phases=2 bus1=house_agg_0_A_7_node_11_99.1.2 conn=wye kv=0.208 kw=3.000 kvar=0.000
new load.house_agg_0_A_8_node_11_100_240v phases=2 bus1=house_agg_0_A_8_node_11_100.1.2 conn=wye kv=0.208 kw=3.000 kvar=0.000
new load.house_agg_0_A_9_node_11_101_240v phases=2 bus1=house_agg_0_A_9_node_11_101.1.2 conn=wye kv=0.208 kw=3.000 kvar=0.000
new load.house_agg_0_A_10_node_11_102_240v phases=2 bus1=house_agg_0_A_10_node_11_102.1.2 conn=wye kv=0.208 kw=3.000 kvar=0.000
new load.house_agg_0_A_11_node_11_103_240v phases=2 bus1=house_agg_0_A_11_node_11_103.1.2 conn=wye kv=0.208 kw=3.000 kvar=0.000
new load.house_agg_0_A_12_node_11_104_240v phases=2 bus1=house_agg_0_A_12_node_11_104.1.2 conn=wye kv=0.208 kw=3.000 kvar=0.000
new load.house_agg_0_A_13_node_11_105_240v phases=2 bus1=house_agg_0_A_13_node_11_105.1.2 conn=wye kv=0.208 kw=3.000 kvar=0.000
new load.house_agg_0_A_14_node_11_106_240v phases=2 bus1=house_agg_0_A_14_node_11_106.1.2 conn=wye kv=0.208 kw=3.000 kvar=0.000
new load.house_agg_0_A_15_node_11_107_240v phases=2 bus1=house_agg_0_A_15_node_11_107.1.2 conn=wye kv=0.208 kw=3.000 kvar=0.000
new load.house_agg_0_B_1_node_12_108_240v phases=2 bus1=house_agg_0_B_1_node_12_108.1.2 conn=wye kv=0.208 kw=3.000 kvar=0.000
new load.house_agg_0_B_2_node_12_109_240v phases=2 bus1=house_agg_0_B_2_node_12_109.1.2 conn=wye kv=0.208 kw=3.000 kvar=0.000
new load.house_agg_0_B_3_node_12_110_240v phases=2 bus1=house_agg_0_B_3_node_12_110.1.2 conn=wye kv=0.208 kw=3.000 kvar=0.000
new load.house_agg_0_B_4_node_12_111_240v phases=2 bus1=house_agg_0_B_4_node_12_111.1.2 conn=wye kv=0.208 kw=3.000 kvar=0.000
new load.house_agg_0_B_5_node_12_112_240v phases=2 bus1=house_agg_0_B_5_node_12_112.1.2 conn=wye kv=0.208 kw=3.000 kvar=0.000
new load.house_agg_0_B_6_node_12_113_240v phases=2 bus1=house_agg_0_B_6_node_12_113.1.2 conn=wye kv=0.208 kw=3.000 kvar=0.000
new load.house_agg_0_B_7_node_12_114_240v phases=2 bus1=house_agg_0_B_7_node_12_114.1.2 conn=wye kv=0.208 kw=3.000 kvar=0.000
new load.house_agg_0_B_8_node_12_115_240v phases=2 bus1=house_agg_0_B_8_node_12_115.1.2 conn=wye kv=0.208 kw=3.000 kvar=0.000
new load.house_agg_0_C_1_node_16_116_240v phases=2 bus1=house_agg_0_C_1_node_16_116.1.2 conn=wye kv=0.208 kw=3.000 kvar=0.000
new load.house_agg_0_C_2_node_16_117_240v phases=2 bus1=house_agg_0_C_2_node_16_117.1.2 conn=wye kv=0.208 kw=3.000 kvar=0.000
new load.house_agg_0_C_3_node_16_118_240v phases=2 bus1=house_agg_0_C_3_node_16_118.1.2 conn=wye kv=0.208 kw=3.000 kvar=0.000
new load.house_agg_0_C_4_node_16_119_240v phases=2 bus1=house_agg_0_C_4_node_16_119.1.2 conn=wye kv=0.208 kw=3.000 kvar=0.000
new load.house_agg_0_C_5_node_16_120_240v phases=2 bus1=house_agg_0_C_5_node_16_120.1.2 conn=wye kv=0.208 kw=3.000 kvar=0.000
new load.house_agg_0_C_6_node_16_121_240v phases=2 bus1=house_agg_0_C_6_node_16_121.1.2 conn=wye kv=0.208 kw=3.000 kvar=0.000
new load.house_agg_0_C_7_node_16_122_240v phases=2 bus1=house_agg_0_C_7_node_16_122.1.2 conn=wye kv=0.208 kw=3.000 kvar=0.000
new load.house_agg_0_C_8_node_16_123_240v phases=2 bus1=house_agg_0_C_8_node_16_123.1.2 conn=wye kv=0.208 kw=3.000 kvar=0.000
new load.house_agg_0_C_9_node_16_124_240v phases=2 bus1=house_agg_0_C_9_node_16_124.1.2 conn=wye kv=0.208 kw=3.000 kvar=0.000
new load.house_agg_0_C_10_node_16_125_240v phases=2 bus1=house_agg_0_C_10_node_16_125.1.2 conn=wye kv=0.208 kw=3.000 kvar=0.000
new load.house_agg_0_C_11_node_16_126_240v phases=2 bus1=house_agg_0_C_11_node_16_126.1.2 conn=wye kv=0.208 kw=3.000 kvar=0.000
new load.house_agg_0_C_12_node_16_127_240v phases=2 bus1=house_agg_0_C_12_node_16_127.1.2 conn=wye kv=0.208 kw=3.000 kvar=0.000
new load.house_agg_0_C_13_node_16_128_240v phases=2 bus1=house_agg_0_C_13_node_16_128.1.2 conn=wye kv=0.208 kw=3.000 kvar=0.000
new load.house_agg_0_C_14_node_16_129_240v phases=2 bus1=house_agg_0_C_14_node_16_129.1.2 conn=wye kv=0.208 kw=3.000 kvar=0.000
new load.house_agg_0_C_15_node_16_130_240v phases=2 bus1=house_agg_0_C_15_node_16_130.1.2 conn=wye kv=0.208 kw=3.000 kvar=0.000
new load.house_agg_0_C_1_node_17_131_240v phases=2 bus1=house_agg_0_C_1_node_17_131.1.2 conn=wye kv=0.208 kw=3.000 kvar=0.000
new load.house_agg_0_C_2_node_17_132_240v phases=2 bus1=house_agg_0_C_2_node_17_132.1.2 conn=wye kv=0.208 kw=3.000 kvar=0.000
new load.house_agg_0_C_3_node_17_133_240v phases=2 bus1=house_agg_0_C_3_node_17_133.1.2 conn=wye kv=0.208 kw=3.000 kvar=0.000
new load.house_agg_0_C_4_node_17_134_240v phases=2 bus1=house_agg_0_C_4_node_17_134.1.2 conn=wye kv=0.208 kw=3.000 kvar=0.000
new load.house_agg_0_C_5_node_17_135_240v phases=2 bus1=house_agg_0_C_5_node_17_135.1.2 conn=wye kv=0.208 kw=3.000 kvar=0.000
new load.house_agg_0_C_6_node_17_136_240v phases=2 bus1=house_agg_0_C_6_node_17_136.1.2 conn=wye kv=0.208 kw=3.000 kvar=0.000
new load.house_agg_0_C_7_node_17_137_240v phases=2 bus1=house_agg_0_C_7_node_17_137.1.2 conn=wye kv=0.208 kw=3.000 kvar=0.000
new load.house_agg_0_C_8_node_17_138_240v phases=2 bus1=house_agg_0_C_8_node_17_138.1.2 conn=wye kv=0.208 kw=3.000 kvar=0.000
new load.house_agg_0_A_1_node_19_139_240v phases=2 bus1=house_agg_0_A_1_node_19_139.1.2 conn=wye kv=0.208 kw=3.000 kvar=0.000
new load.house_agg_0_A_2_node_19_140_240v phases=2 bus1=house_agg_0_A_2_node_19_140.1.2 conn=wye kv=0.208 kw=3.000 kvar=0.000
new load.house_agg_0_A_3_node_19_141_240v phases=2 bus1=house_agg_0_A_3_node_19_141.1.2 conn=wye kv=0.208 kw=3.000 kvar=0.000
new load.house_agg_0_A_4_node_19_142_240v phases=2 bus1=house_agg_0_A_4_node_19_142.1.2 conn=wye kv=0.208 kw=3.000 kvar=0.000
new load.house_agg_0_A_5_node_19_143_240v phases=2 bus1=house_agg_0_A_5_node_19_143.1.2 conn=wye kv=0.208 kw=3.000 kvar=0.000
new load.house_agg_0_A_6_node_19_144_240v phases=2 bus1=house_agg_0_A_6_node_19_144.1.2 conn=wye kv=0.208 kw=3.000 kvar=0.000
new load.house_agg_0_A_7_node_19_145_240v phases=2 bus1=house_agg_0_A_7_node_19_145.1.2 conn=wye kv=0.208 kw=3.000 kvar=0.000
new load.house_agg_0_A_8_node_19_146_240v phases=2 bus1=house_agg_0_A_8_node_19_146.1.2 conn=wye kv=0.208 kw=3.000 kvar=0.000
new load.house_agg_0_A_9_node_19_147_240v phases=2 bus1=house_agg_0_A_9_node_19_147.1.2 conn=wye kv=0.208 kw=3.000 kvar=0.000
new load.house_agg_0_A_10_node_19_148_240v phases=2 bus1=house_agg_0_A_10_node_19_148.1.2 conn=wye kv=0.208 kw=3.000 kvar=0.000
new load.house_agg_0_A_11_node_19_149_240v phases=2 bus1=house_agg_0_A_11_node_19_149.1.2 conn=wye kv=0.208 kw=3.000 kvar=0.000
new load.house_agg_0_A_12_node_19_150_240v phases=2 bus1=house_agg_0_A_12_node_19_150.1.2 conn=wye kv=0.208 kw=3.000 kvar=0.000
new load.house_agg_0_A_13_node_19_151_240v phases=2 bus1=house_agg_0_A_13_node_19_151.1.2 conn=wye kv=0.208 kw=3.000 kvar=0.000
new load.house_agg_0_A_14_node_19_152_240v phases=2 bus1=house_agg_0_A_14_node_19_152.1.2 conn=wye kv=0.208 kw=3.000 kvar=0.000
new load.house_agg_0_A_15_node_19_153_240v phases=2 bus1=house_agg_0_A_15_node_19_153.1.2 conn=wye kv=0.208 kw=3.000 kvar=0.000
new load.house_agg_0_A_1_node_20_154_240v phases=2 bus1=house_agg_0_A_1_node_20_154.1.2 conn=wye kv=0.208 kw=3.000 kvar=0.000
new load.house_agg_0_A_2_node_20_155_240v phases=2 bus1=house_agg_0_A_2_node_20_155.1.2 conn=wye kv=0.208 kw=3.000 kvar=0.000
new load.house_agg_0_A_3_node_20_156_240v phases=2 bus1=house_agg_0_A_3_node_20_156.1.2 conn=wye kv=0.208 kw=3.000 kvar=0.000
new load.house_agg_0_A_4_node_20_157_240v phases=2 bus1=house_agg_0_A_4_node_20_157.1.2 conn=wye kv=0.208 kw=3.000 kvar=0.000
new load.house_agg_0_A_5_node_20_158_240v phases=2 bus1=house_agg_0_A_5_node_20_158.1.2 conn=wye kv=0.208 kw=3.000 kvar=0.000
new load.house_agg_0_A_6_node_20_159_240v phases=2 bus1=house_agg_0_A_6_node_20_159.1.2 conn=wye kv=0.208 kw=3.000 kvar=0.000
new load.house_agg_0_A_7_node_20_160_240v phases=2 bus1=house_agg_0_A_7_node_20_160.1.2 conn=wye kv=0.208 kw=3.000 kvar=0.000
new load.house_agg_0_A_8_node_20_161_240v phases=2 bus1=house_agg_0_A_8_node_20_161.1.2 conn=wye kv=0.208 kw=3.000 kvar=0.000
new load.house_agg_0_A_9_node_20_162_240v phases=2 bus1=house_agg_0_A_9_node_20_162.1.2 conn=wye kv=0.208 kw=3.000 kvar=0.000
new load.house_agg_0_A_10_node_20_163_240v phases=2 bus1=house_agg_0_A_10_node_20_163.1.2 conn=wye kv=0.208 kw=3.000 kvar=0.000
new load.house_agg_0_A_11_node_20_164_240v phases=2 bus1=house_agg_0_A_11_node_20_164.1.2 conn=wye kv=0.208 kw=3.000 kvar=0.000
new load.house_agg_0_A_12_node_20_165_240v phases=2 bus1=house_agg_0_A_12_node_20_165.1.2 conn=wye kv=0.208 kw=3.000 kvar=0.000
new load.house_agg_0_A_13_node_20_166_240v phases=2 bus1=house_agg_0_A_13_node_20_166.1.2 conn=wye kv=0.208 kw=3.000 kvar=0.000
new load.house_agg_0_A_14_node_20_167_240v phases=2 bus1=house_agg_0_A_14_node_20_167.1.2 conn=wye kv=0.208 kw=3.000 kvar=0.000
new load.house_agg_0_A_15_node_20_168_240v phases=2 bus1=house_agg_0_A_15_node_20_168.1.2 conn=wye kv=0.208 kw=3.000 kvar=0.000
new load.house_agg_1_B_1_node_22_169_240v phases=2 bus1=house_agg_1_B_1_node_22_169.1.2 conn=wye kv=0.208 kw=3.000 kvar=0.000
new load.house_agg_1_B_2_node_22_170_240v phases=2 bus1=house_agg_1_B_2_node_22_170.1.2 conn=wye kv=0.208 kw=3.000 kvar=0.000
new load.house_agg_1_B_3_node_22_171_240v phases=2 bus1=house_agg_1_B_3_node_22_171.1.2 conn=wye kv=0.208 kw=3.000 kvar=0.000
new load.house_agg_1_B_4_node_22_172_240v phases=2 bus1=house_agg_1_B_4_node_22_172.1.2 conn=wye kv=0.208 kw=3.000 kvar=0.000
new load.house_agg_1_B_5_node_22_173_240v phases=2 bus1=house_agg_1_B_5_node_22_173.1.2 conn=wye kv=0.208 kw=3.000 kvar=0.000
new load.house_agg_1_B_6_node_22_174_240v phases=2 bus1=house_agg_1_B_6_node_22_174.1.2 conn=wye kv=0.208 kw=3.000 kvar=0.000
new load.house_agg_1_B_7_node_22_175_240v phases=2 bus1=house_agg_1_B_7_node_22_175.1.2 conn=wye kv=0.208 kw=3.000 kvar=0.000
new load.house_agg_1_B_8_node_22_176_240v phases=2 bus1=house_agg_1_B_8_node_22_176.1.2 conn=wye kv=0.208 kw=3.000 kvar=0.000
new load.house_agg_1_B_9_node_22_177_240v phases=2 bus1=house_agg_1_B_9_node_22_177.1.2 conn=wye kv=0.208 kw=3.000 kvar=0.000
new load.house_agg_1_B_10_node_22_178_240v phases=2 bus1=house_agg_1_B_10_node_22_178.1.2 conn=wye kv=0.208 kw=3.000 kvar=0.000
new load.house_agg_1_B_11_node_22_179_240v phases=2 bus1=house_agg_1_B_11_node_22_179.1.2 conn=wye kv=0.208 kw=3.000 kvar=0.000
new load.house_agg_1_B_12_node_22_180_240v phases=2 bus1=house_agg_1_B_12_node_22_180.1.2 conn=wye kv=0.208 kw=3.000 kvar=0.000
new load.house_agg_1_B_13_node_22_181_240v phases=2 bus1=house_agg_1_B_13_node_22_181.1.2 conn=wye kv=0.208 kw=3.000 kvar=0.000
new load.house_agg_1_B_14_node_22_182_240v phases=2 bus1=house_agg_1_B_14_node_22_182.1.2 conn=wye kv=0.208 kw=3.000 kvar=0.000
new load.house_agg_1_B_15_node_22_183_240v phases=2 bus1=house_agg_1_B_15_node_22_183.1.2 conn=wye kv=0.208 kw=3.000 kvar=0.000
new load.house_agg_1_C_1_node_24_184_240v phases=2 bus1=house_agg_1_C_1_node_24_184.1.2 conn=wye kv=0.208 kw=3.000 kvar=0.000
new load.house_agg_1_C_2_node_24_185_240v phases=2 bus1=house_agg_1_C_2_node_24_185.1.2 conn=wye kv=0.208 kw=3.000 kvar=0.000
new load.house_agg_1_C_3_node_24_186_240v phases=2 bus1=house_agg_1_C_3_node_24_186.1.2 conn=wye kv=0.208 kw=3.000 kvar=0.000
new load.house_agg_1_C_4_node_24_187_240v phases=2 bus1=house_agg_1_C_4_node_24_187.1.2 conn=wye kv=0.208 kw=3.000 kvar=0.000
new load.house_agg_1_C_5_node_24_188_240v phases=2 bus1=house_agg_1_C_5_node_24_188.1.2 conn=wye kv=0.208 kw=3.000 kvar=0.000
new load.house_agg_1_C_6_node_24_189_240v phases=2 bus1=house_agg_1_C_6_node_24_189.1.2 conn=wye kv=0.208 kw=3.000 kvar=0.000
new load.house_agg_1_C_7_node_24_190_240v phases=2 bus1=house_agg_1_C_7_node_24_190.1.2 conn=wye kv=0.208 kw=3.000 kvar=0.000
new load.house_agg_1_C_8_node_24_191_240v phases=2 bus1=house_agg_1_C_8_node_24_191.1.2 conn=wye kv=0.208 kw=3.000 kvar=0.000
new load.house_agg_1_C_9_node_24_192_240v phases=2 bus1=house_agg_1_C_9_node_24_192.1.2 conn=wye kv=0.208 kw=3.000 kvar=0.000
new load.house_agg_1_C_10_node_24_193_240v phases=2 bus1=house_agg_1_C_10_node_24_193.1.2 conn=wye kv=0.208 kw=3.000 kvar=0.000
new load.house_agg_1_C_11_node_24_194_240v phases=2 bus1=house_agg_1_C_11_node_24_194.1.2 conn=wye kv=0.208 kw=3.000 kvar=0.000
new load.house_agg_1_C_12_node_24_195_240v phases=2 bus1=house_agg_1_C_12_node_24_195.1.2 conn=wye kv=0.208 kw=3.000 kvar=0.000
new load.house_agg_1_C_13_node_24_196_240v phases=2 bus1=house_agg_1_C_13_node_24_196.1.2 conn=wye kv=0.208 kw=3.000 kvar=0.000
new load.house_agg_1_C_14_node_24_197_240v phases=2 bus1=house_agg_1_C_14_node_24_197.1.2 conn=wye kv=0.208 kw=3.000 kvar=0.000
new load.house_agg_1_C_15_node_24_198_240v phases=2 bus1=house_agg_1_C_15_node_24_198.1.2 conn=wye kv=0.208 kw=3.000 kvar=0.000
new load.house_agg_1_A_1_node_28_199_240v phases=2 bus1=house_agg_1_A_1_node_28_199.1.2 conn=wye kv=0.208 kw=3.000 kvar=0.000
new load.house_agg_1_A_2_node_28_200_240v phases=2 bus1=house_agg_1_A_2_node_28_200.1.2 conn=wye kv=0.208 kw=3.000 kvar=0.000
...
